<?xml version="1.0" encoding="UTF-8"?>

<!-- generated on 11/11/20 16:39:00 by Eclipse SUMO netconvert Version 1.5.0
<configuration xmlns:xsi="http://www.w3.org/2001/XMLSchema-instance" xsi:noNamespaceSchemaLocation="http://sumo.dlr.de/xsd/netconvertConfiguration.xsd">

    <input>
        <node-files value="node.net.xml"/>
        <edge-files value="edge.net.xml"/>
        <connection-files value="conn.net.xml"/>
        <tllogic-files value="tl.tll.xml"/>
    </input>

    <output>
        <output-file value="mianyang.net.xml"/>
    </output>

    <junctions>
        <no-internal-links value="true"/>
        <no-turnarounds value="true"/>
    </junctions>

    <report>
        <aggregate-warnings value="5"/>
    </report>

</configuration>
-->

<net version="1.3" junctionCornerDetail="5" limitTurnSpeed="5.50" xmlns:xsi="http://www.w3.org/2001/XMLSchema-instance" xsi:noNamespaceSchemaLocation="http://sumo.dlr.de/xsd/net_file.xsd">

    <location netOffset="-4245.73,-12862.90" convBoundary="0.00,0.00,15807.67,8018.94" origBoundary="4245.73,12862.90,20053.40,20881.84" projParameter="!"/>
	<vType id="routeByDistance" maxSpeed="1"/>
    <edge id="-1207" from="177" to="291" priority="-1" shape="10661.16,11.50 10648.25,114.87 10625.39,218.76 10634.87,285.37 10637.28,394.89 10598.25,493.96 10570.99,523.56 10491.22,570.48 10459.13,621.68 10417.30,754.08 10407.95,783.51 10419.06,820.28 10402.28,861.78 10403.89,900.65 10375.76,934.07 10340.19,971.75 10281.12,1024.85 10273.39,1059.78 10278.13,1098.78 10317.49,1191.56 10354.53,1250.85">
        <lane id="-1207_0" index="0" speed="30.00" length="1423.37" shape="10664.16,0.40 10649.83,115.14 10627.01,218.82 10636.47,285.24 10638.89,395.18 10599.63,494.82 10572.01,524.82 10492.37,571.66 10460.59,622.36 10418.83,754.56 10409.63,783.52 10420.75,820.36 10403.89,862.06 10405.51,901.20 10376.95,935.14 10341.31,972.90 10282.57,1025.70 10275.01,1059.86 10279.69,1098.36 10318.91,1190.82 10355.53,1249.43"/>
    </edge>
    <edge id="-1220" from="27" to="28" priority="-1" shape="10888.38,2467.52 10736.68,2572.32">
        <lane id="-1220_0" index="0" speed="30.00" length="233.45" shape="10891.11,2471.47 10739.41,2576.27"/>
        <lane id="-1220_1" index="1" speed="30.00" length="233.45" shape="10889.29,2468.84 10737.59,2573.64"/>
    </edge>
    <edge id="-1245" from="361" to="91" priority="-1" shape="13727.58,1038.30 13166.08,1041.70">
        <lane id="-1245_0" index="0" speed="30.00" length="601.90" shape="13727.65,1049.50 13166.15,1052.90"/>
        <lane id="-1245_1" index="1" speed="30.00" length="601.90" shape="13727.63,1046.30 13166.13,1049.70"/>
        <lane id="-1245_2" index="2" speed="30.00" length="601.90" shape="13727.61,1043.10 13166.11,1046.50"/>
        <lane id="-1245_3" index="3" speed="30.00" length="601.90" shape="13727.59,1039.90 13166.09,1043.30"/>
    </edge>
    <edge id="-1760" from="1760wxd" to="57" priority="-1" shape="12549.87,858.03 12552.95,933.68 12641.19,1063.60">
        <lane id="-1760_0" index="0" speed="30.00" length="260.35" shape="12551.47,857.96 12554.53,933.16 12642.52,1062.71"/>
    </edge>
    <edge id="-2011" from="2011wxd" to="58" priority="-1" shape="12547.42,860.01 12546.73,857.39 12773.32,536.25 12718.52,424.49 12671.27,369.57 12638.22,344.59 12600.97,317.75 12572.47,292.46 12543.36,271.92 12516.36,253.82">
        <lane id="-2011_0" index="0" speed="30.00" length="802.10" shape="12545.87,860.42 12544.99,857.08 12771.47,536.10 12717.17,425.38 12670.17,370.74 12637.27,345.88 12599.97,319.00 12571.47,293.72 12542.45,273.24 12517.45,256.48"/>
    </edge>
    <edge id="-2607" from="3" to="4" priority="-1" shape="9706.13,3378.59 9372.40,3412.91">
        <lane id="-2607_0" index="0" speed="30.00" length="388.56" shape="9706.95,3386.55 9374.22,3420.77"/>
        <lane id="-2607_1" index="1" speed="30.00" length="388.56" shape="9706.62,3383.36 9373.89,3417.58"/>
        <lane id="-2607_2" index="2" speed="30.00" length="388.56" shape="9706.29,3380.18 9373.56,3414.40"/>
    </edge>
    <edge id="-2609" from="4" to="5" priority="-1" shape="9346.27,3416.09 8915.06,3471.47">
        <lane id="-2609_0" index="0" speed="30.00" length="463.53" shape="9347.29,3424.02 8917.19,3479.26"/>
        <lane id="-2609_1" index="1" speed="30.00" length="463.53" shape="9346.88,3420.85 8916.78,3476.09"/>
        <lane id="-2609_2" index="2" speed="30.00" length="463.53" shape="9346.47,3417.68 8916.37,3472.91"/>
    </edge>
    <edge id="-2616" from="7" to="2616wxd" priority="-1" shape="6468.00,4393.32 6286.70,4750.62">
        <lane id="-2616_0" index="0" speed="30.00" length="422.79" shape="6475.13,4396.94 6293.83,4754.24"/>
        <lane id="-2616_1" index="1" speed="30.00" length="422.79" shape="6472.28,4395.49 6290.98,4752.80"/>
        <lane id="-2616_2" index="2" speed="30.00" length="422.79" shape="6469.43,4394.04 6288.12,4751.35"/>
    </edge>
    <edge id="-2624" from="10" to="284" priority="-1" shape="7024.91,2727.06 7250.61,2488.60">
        <lane id="-2624_0" index="0" speed="30.00" length="363.44" shape="7022.74,2722.37 7247.12,2485.30"/>
        <lane id="-2624_1" index="1" speed="30.00" length="363.44" shape="7025.06,2724.57 7249.45,2487.50"/>
    </edge>
    <edge id="-2625" from="9" to="10" priority="-1" shape="6824.21,4068.67 6752.92,3912.76 6670.42,3361.48 6849.88,2950.88 7009.70,2744.42">
        <lane id="-2625_0" index="0" speed="30.00" length="1473.83" shape="6819.84,4070.67 6748.27,3914.14 6665.47,3360.82 6845.72,2948.41 7005.83,2741.58"/>
        <lane id="-2625_1" index="1" speed="30.00" length="1473.83" shape="6822.75,4069.34 6751.37,3913.22 6668.77,3361.26 6848.49,2950.06 7008.36,2743.54"/>
    </edge>
    <edge id="-2627" from="10" to="11" priority="-1" shape="7028.67,2741.67 7259.64,2894.09 7409.27,3070.49">
        <lane id="-2627_0" index="0" speed="30.00" length="533.21" shape="7032.91,2738.72 7262.86,2890.46 7412.86,3067.30"/>
        <lane id="-2627_1" index="1" speed="30.00" length="533.21" shape="7031.15,2741.39 7260.71,2892.88 7410.42,3069.37"/>
    </edge>
    <edge id="-2628" from="12" to="6" priority="-1" shape="7560.41,3309.10 7643.91,3447.32 7697.78,3522.02 7733.46,3608.93 7752.38,3661.86">
        <lane id="-2628_0" index="0" speed="30.00" length="442.12" shape="7565.44,3308.14 7647.92,3444.67 7702.00,3519.67 7737.94,3607.21 7756.90,3660.25"/>
        <lane id="-2628_1" index="1" speed="30.00" length="442.12" shape="7562.70,3309.79 7645.25,3446.44 7699.19,3521.24 7734.95,3608.36 7753.89,3661.32"/>
    </edge>
    <edge id="-2629" from="11" to="12" priority="-1" shape="7422.95,3090.94 7546.15,3285.90">
        <lane id="-2629_0" index="0" speed="30.00" length="254.90" shape="7427.97,3089.91 7549.46,3282.15"/>
        <lane id="-2629_1" index="1" speed="30.00" length="254.90" shape="7425.27,3091.62 7546.75,3283.85"/>
    </edge>
    <edge id="-2635" from="13" to="14" priority="-1" shape="8788.11,2453.15 8711.21,2329.85">
        <lane id="-2635_0" index="0" speed="30.00" length="174.29" shape="8784.04,2455.69 8707.14,2332.39"/>
        <lane id="-2635_1" index="1" speed="30.00" length="174.29" shape="8786.75,2454.00 8709.85,2330.69"/>
    </edge>
    <edge id="-2636" from="15" to="13" priority="-1" shape="8910.21,2648.44 8804.01,2477.14">
        <lane id="-2636_0" index="0" speed="30.00" length="237.31" shape="8906.13,2650.97 8799.93,2479.67"/>
        <lane id="-2636_1" index="1" speed="30.00" length="237.31" shape="8908.85,2649.28 8802.65,2477.98"/>
    </edge>
    <edge id="-2641" from="18" to="16" priority="-1" shape="8755.87,3134.52 9099.37,2995.32">
        <lane id="-2641_0" index="0" speed="30.00" length="410.96" shape="8754.07,3130.07 9097.57,2990.87"/>
        <lane id="-2641_1" index="1" speed="30.00" length="410.96" shape="8755.27,3133.04 9098.77,2993.84"/>
    </edge>
    <edge id="-2642" from="16" to="15" priority="-1" shape="9104.10,2974.33 8927.60,2682.53">
        <lane id="-2642_0" index="0" speed="30.00" length="379.36" shape="9099.99,2976.81 8923.49,2685.01"/>
        <lane id="-2642_1" index="1" speed="30.00" length="379.36" shape="9102.73,2975.16 8926.23,2683.36"/>
    </edge>
    <edge id="-2644" from="17" to="16" priority="-1" shape="9224.00,3180.32 9120.00,3005.72">
        <lane id="-2644_0" index="0" speed="30.00" length="234.76" shape="9219.88,3182.78 9115.87,3008.17"/>
        <lane id="-2644_1" index="1" speed="30.00" length="234.76" shape="9222.63,3181.14 9118.62,3006.53"/>
    </edge>
    <edge id="-2645" from="4" to="17" priority="-1" shape="9346.61,3383.74 9236.61,3204.04">
        <lane id="-2645_0" index="0" speed="30.00" length="253.29" shape="9342.52,3386.25 9232.51,3206.54"/>
        <lane id="-2645_1" index="1" speed="30.00" length="253.29" shape="9345.25,3384.58 9235.24,3204.86"/>
    </edge>
    <edge id="-2646" from="18" to="5" priority="-1" shape="8742.79,3159.96 8883.79,3428.76">
        <lane id="-2646_0" index="0" speed="30.00" length="367.37" shape="8749.87,3156.24 8890.87,3425.04"/>
        <lane id="-2646_1" index="1" speed="30.00" length="367.37" shape="8747.04,3157.73 8888.04,3426.53"/>
        <lane id="-2646_2" index="2" speed="30.00" length="367.37" shape="8744.21,3159.22 8885.21,3428.02"/>
    </edge>
    <edge id="-2648" from="19" to="14" priority="-1" shape="8924.69,2164.71 8716.99,2309.51">
        <lane id="-2648_0" index="0" speed="30.00" length="276.73" shape="8927.15,2168.85 8719.73,2313.45"/>
        <lane id="-2648_1" index="1" speed="30.00" length="276.73" shape="8925.32,2166.22 8717.90,2310.83"/>
    </edge>
    <edge id="-2650" from="20" to="19" priority="-1" shape="9233.69,2007.43 8946.59,2151.63">
        <lane id="-2650_0" index="0" speed="30.00" length="357.20" shape="9235.84,2011.72 8948.74,2155.92"/>
        <lane id="-2650_1" index="1" speed="30.00" length="357.20" shape="9234.41,2008.86 8947.31,2153.06"/>
    </edge>
    <edge id="-2651" from="21" to="20" priority="-1" shape="9601.39,1818.03 9273.79,1984.53">
        <lane id="-2651_0" index="0" speed="30.00" length="405.98" shape="9603.56,1822.31 9275.96,1988.81"/>
        <lane id="-2651_1" index="1" speed="30.00" length="405.98" shape="9602.11,1819.46 9274.51,1985.96"/>
    </edge>
    <edge id="-2657" from="21" to="22" priority="-1" shape="9604.94,1799.92 9482.04,1554.52">
        <lane id="-2657_0" index="0" speed="30.00" length="308.74" shape="9600.65,1802.07 9477.75,1556.66"/>
        <lane id="-2657_1" index="1" speed="30.00" length="308.74" shape="9603.51,1800.64 9480.61,1555.23"/>
    </edge>
    <edge id="-2663" from="22" to="23" priority="-1" shape="9494.21,1527.71 9751.48,1501.68 9845.21,1524.28 10067.36,1629.65">
        <lane id="-2663_0" index="0" speed="30.00" length="637.24" shape="9493.73,1522.93 9751.81,1496.82 9846.82,1519.73 10069.42,1625.31"/>
        <lane id="-2663_1" index="1" speed="30.00" length="637.24" shape="9494.05,1526.12 9751.59,1500.06 9845.75,1522.76 10068.05,1628.20"/>
    </edge>
    <edge id="-2672" from="27" to="26" priority="-1" shape="10913.82,2442.11 11138.32,2276.41">
        <lane id="-2672_0" index="0" speed="30.00" length="324.66" shape="10910.97,2438.25 11135.47,2272.55"/>
        <lane id="-2672_1" index="1" speed="30.00" length="324.66" shape="10912.87,2440.82 11137.37,2275.12"/>
    </edge>
    <edge id="-2681" from="28" to="29" priority="-1" shape="10696.70,2573.17 10583.50,2486.67">
        <lane id="-2681_0" index="0" speed="30.00" length="207.17" shape="10693.79,2576.98 10580.59,2490.48"/>
        <lane id="-2681_1" index="1" speed="30.00" length="207.17" shape="10695.73,2574.44 10582.53,2487.94"/>
    </edge>
    <edge id="-2683" from="29" to="30" priority="-1" shape="10557.01,2490.81 10508.42,2550.70 10431.13,2649.49">
        <lane id="-2683_0" index="0" speed="30.00" length="233.16" shape="10563.22,2495.85 10514.68,2555.69 10437.56,2654.25"/>
        <lane id="-2683_1" index="1" speed="30.00" length="233.16" shape="10560.74,2493.83 10512.17,2553.69 10435.04,2652.28"/>
        <lane id="-2683_2" index="2" speed="30.00" length="233.16" shape="10558.25,2491.82 10509.67,2551.70 10432.52,2650.31"/>
    </edge>
    <edge id="-2684" from="31" to="35" priority="-1" shape="10531.93,2760.80 10390.73,2908.80">
        <lane id="-2684_0" index="0" speed="30.00" length="249.07" shape="10535.40,2764.11 10394.20,2912.12"/>
        <lane id="-2684_1" index="1" speed="30.00" length="249.07" shape="10533.09,2761.90 10391.88,2909.91"/>
    </edge>
    <edge id="-2685" from="28" to="31" priority="-1" shape="10705.53,2602.00 10551.73,2737.50">
        <lane id="-2685_0" index="0" speed="30.00" length="243.86" shape="10708.70,2605.60 10554.90,2741.10"/>
        <lane id="-2685_1" index="1" speed="30.00" length="243.86" shape="10706.59,2603.20 10552.78,2738.70"/>
    </edge>
    <edge id="-2687" from="30" to="31" priority="-1" shape="10438.75,2668.33 10529.45,2738.43">
        <lane id="-2687_0" index="0" speed="30.00" length="148.19" shape="10441.69,2664.53 10532.39,2734.63"/>
        <lane id="-2687_1" index="1" speed="30.00" length="148.19" shape="10439.73,2667.06 10530.43,2737.17"/>
    </edge>
    <edge id="-2688" from="32" to="33" priority="-1" shape="10661.39,2837.17 10765.69,2924.07">
        <lane id="-2688_0" index="0" speed="30.00" length="184.30" shape="10664.46,2833.48 10768.77,2920.39"/>
        <lane id="-2688_1" index="1" speed="30.00" length="184.30" shape="10662.41,2835.94 10766.72,2922.85"/>
    </edge>
    <edge id="-2689" from="31" to="32" priority="-1" shape="10552.92,2757.91 10628.32,2813.21">
        <lane id="-2689_0" index="0" speed="30.00" length="123.57" shape="10555.76,2754.04 10631.16,2809.34"/>
        <lane id="-2689_1" index="1" speed="30.00" length="123.57" shape="10553.87,2756.62 10629.27,2811.92"/>
    </edge>
    <edge id="-2690" from="32" to="36" priority="-1" shape="10634.02,2842.32 10499.42,2980.72">
        <lane id="-2690_0" index="0" speed="30.00" length="237.03" shape="10637.46,2845.67 10502.86,2984.07"/>
        <lane id="-2690_1" index="1" speed="30.00" length="237.03" shape="10635.17,2843.44 10500.57,2981.84"/>
    </edge>
    <edge id="-2693" from="37" to="33" priority="-1" shape="10561.69,3081.46 10766.99,2946.36">
        <lane id="-2693_0" index="0" speed="30.00" length="281.12" shape="10559.05,3077.45 10764.35,2942.35"/>
        <lane id="-2693_1" index="1" speed="30.00" length="281.12" shape="10560.81,3080.12 10766.11,2945.02"/>
    </edge>
    <edge id="-2695" from="38" to="34" priority="-1" shape="11060.83,3011.08 10966.53,2866.78">
        <lane id="-2695_0" index="0" speed="30.00" length="206.97" shape="11056.81,3013.71 10962.51,2869.40"/>
        <lane id="-2695_1" index="1" speed="30.00" length="206.97" shape="11059.49,3011.96 10965.19,2867.65"/>
    </edge>
    <edge id="-2697" from="33" to="34" priority="-1" shape="10791.38,2931.36 10942.68,2858.86">
        <lane id="-2697_0" index="0" speed="30.00" length="201.92" shape="10789.31,2927.03 10940.61,2854.53"/>
        <lane id="-2697_1" index="1" speed="30.00" length="201.92" shape="10790.69,2929.92 10941.99,2857.42"/>
    </edge>
    <edge id="-2700" from="36" to="35" priority="-1" shape="10468.00,2989.54 10386.30,2936.84">
        <lane id="-2700_0" index="0" speed="30.00" length="129.37" shape="10463.66,2996.26 10381.96,2943.56"/>
        <lane id="-2700_1" index="1" speed="30.00" length="129.37" shape="10465.40,2993.57 10383.70,2940.87"/>
        <lane id="-2700_2" index="2" speed="30.00" length="129.37" shape="10467.13,2990.88 10385.43,2938.18"/>
    </edge>
    <edge id="-2702" from="37" to="36" priority="-1" shape="10533.81,3082.54 10487.61,3007.14">
        <lane id="-2702_0" index="0" speed="30.00" length="118.42" shape="10526.99,3086.72 10480.78,3011.31"/>
        <lane id="-2702_1" index="1" speed="30.00" length="118.42" shape="10529.72,3085.05 10483.51,3009.64"/>
        <lane id="-2702_2" index="2" speed="30.00" length="118.42" shape="10532.45,3083.38 10486.24,3007.97"/>
    </edge>
    <edge id="-2706" from="39" to="38" priority="-1" shape="11329.15,2919.45 11182.95,2988.25 11097.65,3028.15">
        <lane id="-2706_0" index="0" speed="30.00" length="320.40" shape="11332.56,2926.69 11186.35,2995.49 11101.04,3035.40"/>
        <lane id="-2706_1" index="1" speed="30.00" length="320.40" shape="11331.19,2923.79 11184.99,2992.60 11099.68,3032.50"/>
        <lane id="-2706_2" index="2" speed="30.00" length="320.40" shape="11329.83,2920.90 11183.63,2989.70 11098.33,3029.60"/>
    </edge>
    <edge id="-2709" from="39" to="40" priority="-1" shape="11352.99,2878.78 11357.49,2846.09 11428.90,2806.06 11532.64,2728.75 11534.95,2701.34 11523.20,2657.68 11481.95,2597.30">
        <lane id="-2709_0" index="0" speed="30.00" length="424.24" shape="11348.23,2878.13 11353.06,2843.07 11426.28,2802.03 11528.04,2726.19 11530.10,2701.78 11518.78,2659.71 11477.99,2600.01"/>
        <lane id="-2709_1" index="1" speed="30.00" length="424.24" shape="11351.40,2878.56 11356.01,2845.08 11428.03,2804.72 11531.11,2727.90 11533.33,2701.49 11521.73,2658.36 11480.63,2598.20"/>
    </edge>
    <edge id="-2745" from="57" to="56" priority="-1" shape="12637.91,1095.07 12506.96,1151.84 12467.58,1172.68 12432.11,1195.90 12387.93,1230.91 12342.92,1274.41 12234.26,1395.57">
        <lane id="-2745_0" index="0" speed="30.00" length="553.37" shape="12641.09,1102.41 12510.43,1159.06 12471.65,1179.58 12436.79,1202.39 12393.21,1236.94 12348.68,1279.96 12240.22,1400.91"/>
        <lane id="-2745_1" index="1" speed="30.00" length="553.37" shape="12639.82,1099.47 12509.04,1156.17 12470.02,1176.82 12434.92,1199.80 12391.10,1234.53 12346.38,1277.74 12237.83,1398.77"/>
        <lane id="-2745_2" index="2" speed="30.00" length="553.37" shape="12638.55,1096.54 12507.65,1153.28 12468.39,1174.06 12433.05,1197.20 12388.99,1232.12 12344.07,1275.52 12235.45,1396.64"/>
    </edge>
    <edge id="-2750" from="59" to="58" priority="-1" shape="12482.68,258.87 12499.28,247.67">
        <lane id="-2750_0" index="0" speed="30.00" length="37.46" shape="12480.00,254.89 12496.60,243.69"/>
        <lane id="-2750_1" index="1" speed="30.00" length="37.46" shape="12481.79,257.54 12498.39,246.34"/>
    </edge>
    <edge id="-2758" from="62" to="61" priority="-1" shape="10050.86,2735.14 9921.26,2629.14">
        <lane id="-2758_0" index="0" speed="30.00" length="205.49" shape="10047.82,2738.86 9918.22,2632.85"/>
        <lane id="-2758_1" index="1" speed="30.00" length="205.49" shape="10049.85,2736.38 9920.24,2630.37"/>
    </edge>
    <edge id="-3033" from="169" to="93" priority="-1" shape="13360.12,514.72 13736.15,636.80">
        <lane id="-3033_0" index="0" speed="30.00" length="430.04" shape="13361.60,510.15 13737.63,632.23"/>
        <lane id="-3033_1" index="1" speed="30.00" length="430.04" shape="13360.61,513.20 13736.64,635.28"/>
    </edge>
    <edge id="-3041" from="172" to="171" priority="-1" shape="13289.01,1480.29 13218.51,1486.49">
        <lane id="-3041_0" index="0" speed="30.00" length="92.37" shape="13289.15,1481.88 13220.19,1487.95"/>
    </edge>
    <edge id="-3042" from="92" to="172" priority="-1" shape="13725.18,1108.24 13573.46,1231.95 13498.36,1289.65 13469.15,1313.49 13354.48,1429.45 13308.65,1471.68">
        <lane id="-3042_0" index="0" speed="30.00" length="593.55" shape="13726.19,1109.48 13574.45,1233.20 13499.35,1290.90 13470.23,1314.68 13355.59,1430.60 13309.73,1472.86"/>
    </edge>
    <edge id="-3043" from="173" to="171" priority="-1" shape="13214.87,1926.11 13202.37,1737.57 13200.77,1673.46 13211.06,1532.12 13207.38,1496.46">
        <lane id="-3043_0" index="0" speed="30.00" length="455.23" shape="13210.08,1926.43 13197.57,1737.79 13195.97,1673.35 13206.24,1532.19 13202.61,1496.95"/>
        <lane id="-3043_1" index="1" speed="30.00" length="455.23" shape="13213.27,1926.22 13200.77,1737.64 13199.17,1673.42 13209.45,1532.14 13205.79,1496.62"/>
    </edge>
    <edge id="-3046" from="92" to="174" priority="-1" shape="13750.97,1113.82 13746.57,1444.12 13745.37,1554.62">
        <lane id="-3046_0" index="0" speed="30.00" length="487.82" shape="13762.17,1113.97 13757.77,1444.26 13756.57,1554.74"/>
        <lane id="-3046_1" index="1" speed="30.00" length="487.82" shape="13758.97,1113.93 13754.57,1444.22 13753.37,1554.71"/>
        <lane id="-3046_2" index="2" speed="30.00" length="487.82" shape="13755.77,1113.88 13751.37,1444.18 13750.17,1554.67"/>
        <lane id="-3046_3" index="3" speed="30.00" length="487.82" shape="13752.57,1113.84 13748.17,1444.14 13746.97,1554.64"/>
    </edge>
    <edge id="-3048" from="172" to="174" priority="-1" shape="13308.75,1483.92 13409.39,1575.50 13720.97,1575.10">
        <lane id="-3048_0" index="0" speed="30.00" length="482.61" shape="13309.83,1482.74 13410.01,1573.90 13720.97,1573.50"/>
    </edge>
    <edge id="-3057" from="178" to="334" priority="-1" shape="12068.34,6437.72 11861.74,6030.32 11730.13,5764.51">
        <lane id="-3057_0" index="0" speed="30.00" length="777.67" shape="12069.48,6450.58 11857.45,6032.47 11726.57,5768.13"/>
        <lane id="-3057_1" index="1" speed="30.00" length="777.67" shape="12072.34,6449.14 11860.31,6031.04 11729.43,5766.71"/>
    </edge>
    <edge id="-3059" from="321" to="7" priority="-1" shape="9301.35,6614.97 9225.77,6599.65 9203.43,6592.51 9138.38,6567.05 8915.28,6439.29 8799.79,6373.70 8443.85,6177.17 8324.98,6100.57 8180.08,5964.08 8113.36,5876.99 8057.14,5729.77 8027.81,5607.67 8000.92,5492.01 7978.85,5416.31 7965.41,5381.56 7927.60,5309.94 7863.54,5218.29 7763.03,5063.77 7691.92,4955.26 7619.14,4839.29 7562.96,4760.81 7509.96,4682.12 7428.57,4570.54 7383.48,4508.04 7351.85,4465.04 7262.69,4375.48 7198.65,4322.23 7171.85,4300.01 7146.77,4285.24 7121.64,4275.31 7101.98,4269.35 7086.37,4266.19 7069.98,4265.40 7048.68,4266.60 7007.71,4269.99 6840.97,4306.95 6799.17,4319.02 6777.83,4326.80 6758.88,4334.08 6739.95,4342.45 6661.60,4380.87 6636.93,4389.93 6615.46,4395.08 6591.52,4398.19 6571.67,4399.40 6550.18,4398.20 6518.38,4396.29 6502.94,4391.48 6494.91,4387.11">
        <lane id="-3059_0" index="0" speed="30.00" length="4043.19" shape="9300.40,6619.67 9224.56,6604.30 9201.82,6597.04 9136.30,6571.39 8912.90,6443.46 8797.44,6377.89 8441.39,6181.29 8322.01,6104.37 8176.51,5967.31 8109.12,5879.35 8052.55,5731.19 8023.14,5608.77 7996.27,5493.23 7974.30,5417.85 7961.03,5383.55 7923.49,5312.45 7859.56,5220.97 7759.01,5066.39 7687.88,4957.85 7615.15,4841.97 7559.02,4763.55 7506.03,4684.88 7424.68,4573.36 7379.60,4510.87 7348.20,4468.17 7259.45,4379.03 7195.58,4325.92 7169.08,4303.95 7144.66,4289.57 7120.06,4279.85 7100.80,4274.01 7085.77,4270.97 7070.00,4270.21 7049.01,4271.39 7008.43,4274.75 6842.16,4311.60 6800.66,4323.59 6779.51,4331.30 6760.71,4338.52 6741.98,4346.80 6663.49,4385.29 6638.32,4394.53 6616.33,4399.81 6591.98,4402.97 6571.68,4404.21 6549.90,4402.99 6517.51,4401.05 6501.06,4395.92 6492.60,4391.32"/>
        <lane id="-3059_1" index="1" speed="30.00" length="4043.19" shape="9301.03,6616.54 9225.37,6601.20 9202.89,6594.02 9137.69,6568.50 8914.49,6440.68 8799.01,6375.10 8443.03,6178.54 8323.99,6101.84 8178.89,5965.16 8111.95,5877.78 8055.61,5730.24 8026.25,5608.04 7999.37,5492.42 7977.33,5416.82 7963.95,5382.22 7926.23,5310.78 7862.21,5219.18 7761.69,5064.64 7690.57,4956.12 7617.81,4840.18 7561.65,4761.72 7508.65,4683.04 7427.27,4571.48 7382.19,4508.98 7350.63,4466.08 7261.61,4376.66 7197.63,4323.46 7170.93,4301.32 7146.07,4286.68 7121.11,4276.82 7101.59,4270.90 7086.17,4267.78 7069.99,4267.00 7048.79,4268.20 7007.95,4271.58 6841.37,4308.50 6799.67,4320.54 6778.39,4328.30 6759.49,4335.56 6740.63,4343.90 6662.23,4382.34 6637.39,4391.46 6615.75,4396.66 6591.67,4399.78 6571.67,4401.00 6550.09,4399.80 6518.09,4397.88 6502.31,4392.96 6494.13,4388.51"/>
    </edge>
    <edge id="-3321" from="284" to="63" priority="-1" shape="7256.86,2467.32 7033.49,2313.84 6914.83,2238.46 6831.38,2189.06">
        <lane id="-3321_0" index="0" speed="30.00" length="536.90" shape="7250.87,2472.91 7029.08,2320.52 6910.65,2245.28 6827.30,2195.94"/>
        <lane id="-3321_1" index="1" speed="30.00" length="536.90" shape="7252.68,2470.27 7030.84,2317.85 6912.32,2242.55 6828.93,2193.19"/>
        <lane id="-3321_2" index="2" speed="30.00" length="536.90" shape="7254.49,2467.63 7032.61,2315.18 6913.99,2239.82 6830.56,2190.44"/>
    </edge>
    <edge id="-3327" from="287" to="288" priority="-1" shape="8373.62,1805.39 8504.51,1735.65 8617.53,1588.26 8697.00,1526.87 8835.06,1480.18">
        <lane id="-3327_0" index="0" speed="30.00" length="602.78" shape="8374.34,1803.19 8503.45,1734.40 8616.39,1587.12 8696.23,1525.44 8832.71,1479.29"/>
    </edge>
    <edge id="-3331" from="289" to="287" priority="-1" shape="8499.05,2011.50 8369.55,1821.80">
        <lane id="-3331_0" index="0" speed="30.00" length="251.37" shape="8494.45,2013.28 8365.59,1824.51"/>
        <lane id="-3331_1" index="1" speed="30.00" length="251.37" shape="8497.10,2011.47 8368.23,1822.70"/>
    </edge>
    <edge id="-3332" from="14" to="289" priority="-1" shape="8694.04,2301.89 8511.15,2029.30">
        <lane id="-3332_0" index="0" speed="30.00" length="356.85" shape="8690.05,2304.56 8508.14,2033.42"/>
        <lane id="-3332_1" index="1" speed="30.00" length="356.85" shape="8692.71,2302.78 8510.79,2031.64"/>
    </edge>
    <edge id="-3337" from="291" to="23" priority="-1" shape="10352.17,1269.36 10272.88,1344.65 10201.86,1414.18 10087.98,1623.37">
        <lane id="-3337_0" index="0" speed="30.00" length="474.21" shape="10355.48,1272.84 10276.21,1348.11 10205.73,1417.11 10092.20,1625.67"/>
        <lane id="-3337_1" index="1" speed="30.00" length="474.21" shape="10353.27,1270.52 10273.99,1345.80 10203.15,1415.16 10089.39,1624.14"/>
    </edge>
    <edge id="-3338" from="90" to="291" priority="-1" shape="10814.70,1357.19 10727.21,1278.99 10647.67,1230.21 10558.72,1211.50 10481.60,1213.49 10419.46,1230.20 10369.03,1257.21">
        <lane id="-3338_0" index="0" speed="30.00" length="534.28" shape="10811.50,1360.77 10724.33,1282.86 10645.87,1234.74 10558.28,1216.31 10482.29,1218.27 10421.24,1234.69 10371.29,1261.45"/>
        <lane id="-3338_1" index="1" speed="30.00" length="534.28" shape="10813.63,1358.38 10726.25,1280.28 10647.07,1231.72 10558.57,1213.10 10481.83,1215.08 10420.05,1231.70 10369.78,1258.62"/>
    </edge>
    <edge id="-3380" from="30" to="306" priority="-1" shape="10414.44,2671.27 10274.74,2854.77">
        <lane id="-3380_0" index="0" speed="30.00" length="271.24" shape="10420.81,2676.12 10281.11,2859.62"/>
        <lane id="-3380_1" index="1" speed="30.00" length="271.24" shape="10418.26,2674.18 10278.56,2857.68"/>
        <lane id="-3380_2" index="2" speed="30.00" length="271.24" shape="10415.71,2672.24 10276.01,2855.74"/>
    </edge>
    <edge id="-3381" from="306" to="62" priority="-1" shape="10239.23,2855.36 10078.41,2756.88">
        <lane id="-3381_0" index="0" speed="30.00" length="227.90" shape="10236.72,2859.45 10076.00,2761.03"/>
        <lane id="-3381_1" index="1" speed="30.00" length="227.90" shape="10238.39,2856.72 10077.67,2758.30"/>
    </edge>
    <edge id="-3382" from="35" to="306" priority="-1" shape="10362.54,2923.43 10280.44,2881.63">
        <lane id="-3382_0" index="0" speed="30.00" length="128.82" shape="10358.91,2930.56 10276.81,2888.76"/>
        <lane id="-3382_1" index="1" speed="30.00" length="128.82" shape="10360.36,2927.71 10278.26,2885.91"/>
        <lane id="-3382_2" index="2" speed="30.00" length="128.82" shape="10361.81,2924.86 10279.71,2883.06"/>
    </edge>
    <edge id="-3391" from="308" to="307" priority="-1" shape="10376.09,1806.37 10593.29,1916.57">
        <lane id="-3391_0" index="0" speed="30.00" length="286.60" shape="10378.26,1802.09 10595.47,1912.29"/>
        <lane id="-3391_1" index="1" speed="30.00" length="286.60" shape="10376.81,1804.94 10594.02,1915.15"/>
    </edge>
    <edge id="-3392" from="23" to="308" priority="-1" shape="10092.72,1642.59 10287.67,1746.81 10339.51,1778.74">
        <lane id="-3392_0" index="0" speed="30.00" length="318.56" shape="10094.98,1638.36 10290.06,1742.65 10342.03,1774.65"/>
        <lane id="-3392_1" index="1" speed="30.00" length="318.56" shape="10093.47,1641.18 10288.47,1745.42 10340.35,1777.38"/>
    </edge>
    <edge id="-3394" from="90" to="308" priority="-1" shape="10822.33,1382.00 10501.04,1664.19 10374.05,1780.28">
        <lane id="-3394_0" index="0" speed="30.00" length="634.65" shape="10825.50,1385.61 10504.24,1667.76 10377.29,1783.82"/>
        <lane id="-3394_1" index="1" speed="30.00" length="634.65" shape="10823.39,1383.20 10502.11,1665.38 10375.13,1781.46"/>
    </edge>
    <edge id="-3398" from="308" to="309" priority="-1" shape="10344.16,1807.06 10180.25,1936.56 10012.34,2064.07">
        <lane id="-3398_0" index="0" speed="30.00" length="459.55" shape="10349.12,1813.34 10185.15,1942.88 10017.17,2070.45"/>
        <lane id="-3398_1" index="1" speed="30.00" length="459.55" shape="10347.14,1810.83 10183.19,1940.35 10015.24,2067.90"/>
        <lane id="-3398_2" index="2" speed="30.00" length="459.55" shape="10345.15,1808.32 10181.23,1937.82 10013.30,2065.35"/>
    </edge>
    <edge id="-3401" from="61" to="310" priority="-1" shape="9898.86,2610.26 9635.46,2358.66">
        <lane id="-3401_0" index="0" speed="30.00" length="401.86" shape="9895.54,2613.73 9632.14,2362.13"/>
        <lane id="-3401_1" index="1" speed="30.00" length="401.86" shape="9897.75,2611.42 9634.35,2359.82"/>
    </edge>
    <edge id="-3403" from="309" to="310" priority="-1" shape="9979.41,2090.09 9813.21,2211.20 9715.05,2281.14 9638.00,2327.87">
        <lane id="-3403_0" index="0" speed="30.00" length="461.98" shape="9984.12,2096.56 9817.89,2217.69 9719.45,2287.83 9642.15,2334.71"/>
        <lane id="-3403_1" index="1" speed="30.00" length="461.98" shape="9982.24,2093.97 9816.02,2215.09 9717.69,2285.15 9640.49,2331.97"/>
        <lane id="-3403_2" index="2" speed="30.00" length="461.98" shape="9980.35,2091.38 9814.15,2212.50 9715.93,2282.48 9638.83,2329.24"/>
    </edge>