<?xml version="1.0" encoding="UTF-8"?>

<!-- generated on 2024-09-04 17:01:26 by Eclipse SUMO netedit Version 1.19.0
<configuration xmlns:xsi="http://www.w3.org/2001/XMLSchema-instance" xsi:noNamespaceSchemaLocation="http://sumo.dlr.de/xsd/neteditConfiguration.xsd">

    <input>
        <sumocfg-file value="D:\tsc_ddqn_prb_1Con_new\nets\22grid_self.sumocfg"/>
        <additional-files value=""/>
        <route-files value=""/>
        <sumo-net-file value="D:\tsc_ddqn_prb_1Con_new\nets\22grid_self.net.xml"/>
    </input>

    <output>
        <output-file value="D:\tsc_ddqn_prb_1Con_new\nets\22grid_self.net.xml"/>
    </output>

    <processing>
        <geometry.min-radius.fix.railways value="false"/>
        <geometry.max-grade.fix value="false"/>
        <offset.disable-normalization value="true"/>
        <lefthand value="0"/>
    </processing>

    <junctions>
        <no-turnarounds value="true"/>
        <junctions.corner-detail value="5"/>
        <junctions.limit-turn-speed value="5.50"/>
        <rectangular-lane-cut value="0"/>
    </junctions>

    <pedestrian>
        <walkingareas value="0"/>
    </pedestrian>

    <netedit>
        <ignore.routeelements value="false"/>
    </netedit>

</configuration>
-->

<net version="1.16" junctionCornerDetail="5" limitTurnSpeed="5.50" xmlns:xsi="http://www.w3.org/2001/XMLSchema-instance" xsi:noNamespaceSchemaLocation="http://sumo.dlr.de/xsd/net_file.xsd">

    <location netOffset="0.00,0.00" convBoundary="-100.00,-200.00,200.00,100.00" origBoundary="-10000000000.00,-10000000000.00,10000000000.00,10000000000.00" projParameter="!"/>

    <edge id=":0_0" function="internal">
        <lane id=":0_0_0" index="0" speed="6.51" length="9.03" shape="-4.80,10.40 -5.15,7.95 -6.20,6.20 -7.95,5.15 -10.40,4.80"/>
    </edge>
    <edge id=":0_1" function="internal">
        <lane id=":0_1_0" index="0" speed="13.89" length="20.80" shape="-4.80,10.40 -4.80,-10.40"/>
        <lane id=":0_1_1" index="1" speed="13.89" length="20.80" shape="-1.60,10.40 -1.60,-10.40"/>
    </edge>
    <edge id=":0_3" function="internal">
        <lane id=":0_3_0" index="0" speed="9.26" length="5.01" shape="-1.60,10.40 -0.89,5.44"/>
    </edge>
    <edge id=":0_16" function="internal">
        <lane id=":0_16_0" index="0" speed="9.26" length="14.34" shape="-0.89,5.44 -0.85,5.15 1.40,1.40 5.15,-0.85 10.40,-1.60"/>
    </edge>
    <edge id=":0_4" function="internal">
        <lane id=":0_4_0" index="0" speed="6.51" length="9.03" shape="10.40,4.80 7.95,5.15 6.20,6.20 5.15,7.95 4.80,10.40"/>
    </edge>
    <edge id=":0_5" function="internal">
        <lane id=":0_5_0" index="0" speed="13.89" length="20.80" shape="10.40,4.80 -10.40,4.80"/>
        <lane id=":0_5_1" index="1" speed="13.89" length="20.80" shape="10.40,1.60 -10.40,1.60"/>
    </edge>
    <edge id=":0_7" function="internal">
        <lane id=":0_7_0" index="0" speed="9.26" length="5.01" shape="10.40,1.60 5.44,0.89"/>
    </edge>
    <edge id=":0_17" function="internal">
        <lane id=":0_17_0" index="0" speed="9.26" length="14.34" shape="5.44,0.89 5.15,0.85 1.40,-1.40 -0.85,-5.15 -1.60,-10.40"/>
    </edge>
    <edge id=":0_8" function="internal">
        <lane id=":0_8_0" index="0" speed="6.51" length="9.03" shape="4.80,-10.40 5.15,-7.95 6.20,-6.20 7.95,-5.15 10.40,-4.80"/>
    </edge>
    <edge id=":0_9" function="internal">
        <lane id=":0_9_0" index="0" speed="13.89" length="20.80" shape="4.80,-10.40 4.80,10.40"/>
        <lane id=":0_9_1" index="1" speed="13.89" length="20.80" shape="1.60,-10.40 1.60,10.40"/>
    </edge>
    <edge id=":0_11" function="internal">
        <lane id=":0_11_0" index="0" speed="9.26" length="5.01" shape="1.60,-10.40 0.89,-5.44"/>
    </edge>
    <edge id=":0_18" function="internal">
        <lane id=":0_18_0" index="0" speed="9.26" length="14.34" shape="0.89,-5.44 0.85,-5.15 -1.40,-1.40 -5.15,0.85 -10.40,1.60"/>
    </edge>
    <edge id=":0_12" function="internal">
        <lane id=":0_12_0" index="0" speed="6.51" length="9.03" shape="-10.40,-4.80 -7.95,-5.15 -6.20,-6.20 -5.15,-7.95 -4.80,-10.40"/>
    </edge>
    <edge id=":0_13" function="internal">
        <lane id=":0_13_0" index="0" speed="13.89" length="20.80" shape="-10.40,-4.80 10.40,-4.80"/>
        <lane id=":0_13_1" index="1" speed="13.89" length="20.80" shape="-10.40,-1.60 10.40,-1.60"/>
    </edge>
    <edge id=":0_15" function="internal">
        <lane id=":0_15_0" index="0" speed="9.26" length="5.01" shape="-10.40,-1.60 -5.44,-0.89"/>
    </edge>
    <edge id=":0_19" function="internal">
        <lane id=":0_19_0" index="0" speed="9.26" length="14.34" shape="-5.44,-0.89 -5.15,-0.85 -1.40,1.40 0.85,5.15 1.60,10.40"/>
    </edge>
    <edge id=":1_0" function="internal">
        <lane id=":1_0_0" index="0" speed="6.51" length="9.03" shape="95.20,10.40 94.85,7.95 93.80,6.20 92.05,5.15 89.60,4.80"/>
    </edge>
    <edge id=":1_1" function="internal">
        <lane id=":1_1_0" index="0" speed="13.89" length="20.80" shape="95.20,10.40 95.20,-10.40"/>
        <lane id=":1_1_1" index="1" speed="13.89" length="20.80" shape="98.40,10.40 98.40,-10.40"/>
    </edge>
    <edge id=":1_3" function="internal">
        <lane id=":1_3_0" index="0" speed="9.26" length="5.01" shape="98.40,10.40 99.11,5.44"/>
    </edge>
    <edge id=":1_16" function="internal">
        <lane id=":1_16_0" index="0" speed="9.26" length="14.34" shape="99.11,5.44 99.15,5.15 101.40,1.40 105.15,-0.85 110.40,-1.60"/>
    </edge>
    <edge id=":1_4" function="internal">
        <lane id=":1_4_0" index="0" speed="6.51" length="9.03" shape="110.40,4.80 107.95,5.15 106.20,6.20 105.15,7.95 104.80,10.40"/>
    </edge>
    <edge id=":1_5" function="internal">
        <lane id=":1_5_0" index="0" speed="13.89" length="20.80" shape="110.40,4.80 89.60,4.80"/>
        <lane id=":1_5_1" index="1" speed="13.89" length="20.80" shape="110.40,1.60 89.60,1.60"/>
    </edge>
    <edge id=":1_7" function="internal">
        <lane id=":1_7_0" index="0" speed="9.26" length="5.01" shape="110.40,1.60 105.44,0.89"/>
    </edge>
    <edge id=":1_17" function="internal">
        <lane id=":1_17_0" index="0" speed="9.26" length="14.34" shape="105.44,0.89 105.15,0.85 101.40,-1.40 99.15,-5.15 98.40,-10.40"/>
    </edge>
    <edge id=":1_8" function="internal">
        <lane id=":1_8_0" index="0" speed="6.51" length="9.03" shape="104.80,-10.40 105.15,-7.95 106.20,-6.20 107.95,-5.15 110.40,-4.80"/>
    </edge>
    <edge id=":1_9" function="internal">
        <lane id=":1_9_0" index="0" speed="13.89" length="20.80" shape="104.80,-10.40 104.80,10.40"/>
        <lane id=":1_9_1" index="1" speed="13.89" length="20.80" shape="101.60,-10.40 101.60,10.40"/>
    </edge>
    <edge id=":1_11" function="internal">
        <lane id=":1_11_0" index="0" speed="9.26" length="5.01" shape="101.60,-10.40 100.89,-5.44"/>
    </edge>
    <edge id=":1_18" function="internal">
        <lane id=":1_18_0" index="0" speed="9.26" length="14.34" shape="100.89,-5.44 100.85,-5.15 98.60,-1.40 94.85,0.85 89.60,1.60"/>
    </edge>
    <edge id=":1_12" function="internal">
        <lane id=":1_12_0" index="0" speed="6.51" length="9.03" shape="89.60,-4.80 92.05,-5.15 93.80,-6.20 94.85,-7.95 95.20,-10.40"/>
    </edge>
    <edge id=":1_13" function="internal">
        <lane id=":1_13_0" index="0" speed="13.89" length="20.80" shape="89.60,-4.80 110.40,-4.80"/>
        <lane id=":1_13_1" index="1" speed="13.89" length="20.80" shape="89.60,-1.60 110.40,-1.60"/>
    </edge>
    <edge id=":1_15" function="internal">
        <lane id=":1_15_0" index="0" speed="9.26" length="5.01" shape="89.60,-1.60 94.56,-0.89"/>
    </edge>
    <edge id=":1_19" function="internal">
        <lane id=":1_19_0" index="0" speed="9.26" length="14.34" shape="94.56,-0.89 94.85,-0.85 98.60,1.40 100.85,5.15 101.60,10.40"/>
    </edge>
    <edge id=":2_0" function="internal">
        <lane id=":2_0_0" index="0" speed="6.51" length="9.03" shape="-4.80,-89.60 -5.15,-92.05 -6.20,-93.80 -7.95,-94.85 -10.40,-95.20"/>
    </edge>
    <edge id=":2_1" function="internal">
        <lane id=":2_1_0" index="0" speed="13.89" length="20.80" shape="-4.80,-89.60 -4.80,-110.40"/>
        <lane id=":2_1_1" index="1" speed="13.89" length="20.80" shape="-1.60,-89.60 -1.60,-110.40"/>
    </edge>
    <edge id=":2_3" function="internal">
        <lane id=":2_3_0" index="0" speed="9.26" length="5.01" shape="-1.60,-89.60 -0.89,-94.56"/>
    </edge>
    <edge id=":2_16" function="internal">
        <lane id=":2_16_0" index="0" speed="9.26" length="14.34" shape="-0.89,-94.56 -0.85,-94.85 1.40,-98.60 5.15,-100.85 10.40,-101.60"/>
    </edge>
    <edge id=":2_4" function="internal">
        <lane id=":2_4_0" index="0" speed="6.51" length="9.03" shape="10.40,-95.20 7.95,-94.85 6.20,-93.80 5.15,-92.05 4.80,-89.60"/>
    </edge>
    <edge id=":2_5" function="internal">
        <lane id=":2_5_0" index="0" speed="13.89" length="20.80" shape="10.40,-95.20 -10.40,-95.20"/>
        <lane id=":2_5_1" index="1" speed="13.89" length="20.80" shape="10.40,-98.40 -10.40,-98.40"/>
    </edge>
    <edge id=":2_7" function="internal">
        <lane id=":2_7_0" index="0" speed="9.26" length="5.01" shape="10.40,-98.40 5.44,-99.11"/>
    </edge>
    <edge id=":2_17" function="internal">
        <lane id=":2_17_0" index="0" speed="9.26" length="14.34" shape="5.44,-99.11 5.15,-99.15 1.40,-101.40 -0.85,-105.15 -1.60,-110.40"/>
    </edge>
    <edge id=":2_8" function="internal">
        <lane id=":2_8_0" index="0" speed="6.51" length="9.03" shape="4.80,-110.40 5.15,-107.95 6.20,-106.20 7.95,-105.15 10.40,-104.80"/>
    </edge>
    <edge id=":2_9" function="internal">
        <lane id=":2_9_0" index="0" speed="13.89" length="20.80" shape="4.80,-110.40 4.80,-89.60"/>
        <lane id=":2_9_1" index="1" speed="13.89" length="20.80" shape="1.60,-110.40 1.60,-89.60"/>
    </edge>
    <edge id=":2_11" function="internal">
        <lane id=":2_11_0" index="0" speed="9.26" length="5.01" shape="1.60,-110.40 0.89,-105.44"/>
    </edge>
    <edge id=":2_18" function="internal">
        <lane id=":2_18_0" index="0" speed="9.26" length="14.34" shape="0.89,-105.44 0.85,-105.15 -1.40,-101.40 -5.15,-99.15 -10.40,-98.40"/>
    </edge>
    <edge id=":2_12" function="internal">
        <lane id=":2_12_0" index="0" speed="6.51" length="9.03" shape="-10.40,-104.80 -7.95,-105.15 -6.20,-106.20 -5.15,-107.95 -4.80,-110.40"/>
    </edge>
    <edge id=":2_13" function="internal">
        <lane id=":2_13_0" index="0" speed="13.89" length="20.80" shape="-10.40,-104.80 10.40,-104.80"/>
        <lane id=":2_13_1" index="1" speed="13.89" length="20.80" shape="-10.40,-101.60 10.40,-101.60"/>
    </edge>
    <edge id=":2_15" function="internal">
        <lane id=":2_15_0" index="0" speed="9.26" length="5.01" shape="-10.40,-101.60 -5.44,-100.89"/>
    </edge>
    <edge id=":2_19" function="internal">
        <lane id=":2_19_0" index="0" speed="9.26" length="14.34" shape="-5.44,-100.89 -5.15,-100.85 -1.40,-98.60 0.85,-94.85 1.60,-89.60"/>
    </edge>
    <edge id=":3_0" function="internal">
        <lane id=":3_0_0" index="0" speed="6.51" length="9.03" shape="95.20,-89.60 94.85,-92.05 93.80,-93.80 92.05,-94.85 89.60,-95.20"/>
    </edge>
    <edge id=":3_1" function="internal">
        <lane id=":3_1_0" index="0" speed="13.89" length="20.80" shape="95.20,-89.60 95.20,-110.40"/>
        <lane id=":3_1_1" index="1" speed="13.89" length="20.80" shape="98.40,-89.60 98.40,-110.40"/>
    </edge>
    <edge id=":3_3" function="internal">
        <lane id=":3_3_0" index="0" speed="9.26" length="5.01" shape="98.40,-89.60 99.11,-94.56"/>
    </edge>
    <edge id=":3_16" function="internal">
        <lane id=":3_16_0" index="0" speed="9.26" length="14.34" shape="99.11,-94.56 99.15,-94.85 101.40,-98.60 105.15,-100.85 110.40,-101.60"/>
    </edge>
    <edge id=":3_4" function="internal">
        <lane id=":3_4_0" index="0" speed="6.51" length="9.03" shape="110.40,-95.20 107.95,-94.85 106.20,-93.80 105.15,-92.05 104.80,-89.60"/>
    </edge>
    <edge id=":3_5" function="internal">
        <lane id=":3_5_0" index="0" speed="13.89" length="20.80" shape="110.40,-95.20 89.60,-95.20"/>
        <lane id=":3_5_1" index="1" speed="13.89" length="20.80" shape="110.40,-98.40 89.60,-98.40"/>
    </edge>
    <edge id=":3_7" function="internal">
        <lane id=":3_7_0" index="0" speed="9.26" length="5.01" shape="110.40,-98.40 105.44,-99.11"/>
    </edge>
    <edge id=":3_17" function="internal">
        <lane id=":3_17_0" index="0" speed="9.26" length="14.34" shape="105.44,-99.11 105.15,-99.15 101.40,-101.40 99.15,-105.15 98.40,-110.40"/>
    </edge>
    <edge id=":3_8" function="internal">
        <lane id=":3_8_0" index="0" speed="6.51" length="9.03" shape="104.80,-110.40 105.15,-107.95 106.20,-106.20 107.95,-105.15 110.40,-104.80"/>
    </edge>
    <edge id=":3_9" function="internal">
        <lane id=":3_9_0" index="0" speed="13.89" length="20.80" shape="104.80,-110.40 104.80,-89.60"/>
        <lane id=":3_9_1" index="1" speed="13.89" length="20.80" shape="101.60,-110.40 101.60,-89.60"/>
    </edge>
    <edge id=":3_11" function="internal">
        <lane id=":3_11_0" index="0" speed="9.26" length="5.01" shape="101.60,-110.40 100.89,-105.44"/>
    </edge>
    <edge id=":3_18" function="internal">
        <lane id=":3_18_0" index="0" speed="9.26" length="14.34" shape="100.89,-105.44 100.85,-105.15 98.60,-101.40 94.85,-99.15 89.60,-98.40"/>
    </edge>
    <edge id=":3_12" function="internal">
        <lane id=":3_12_0" index="0" speed="6.51" length="9.03" shape="89.60,-104.80 92.05,-105.15 93.80,-106.20 94.85,-107.95 95.20,-110.40"/>
    </edge>
    <edge id=":3_13" function="internal">
        <lane id=":3_13_0" index="0" speed="13.89" length="20.80" shape="89.60,-104.80 110.40,-104.80"/>
        <lane id=":3_13_1" index="1" speed="13.89" length="20.80" shape="89.60,-101.60 110.40,-101.60"/>
    </edge>
    <edge id=":3_15" function="internal">
        <lane id=":3_15_0" index="0" speed="9.26" length="5.01" shape="89.60,-101.60 94.56,-100.89"/>
    </edge>
    <edge id=":3_19" function="internal">
        <lane id=":3_19_0" index="0" speed="9.26" length="14.34" shape="94.56,-100.89 94.85,-100.85 98.60,-98.60 100.85,-94.85 101.60,-89.60"/>
    </edge>

    <edge id="0Ei" from="1" to="0" priority="-1">
        <lane id="0Ei_0" index="0" speed="13.89" length="79.20" shape="89.60,4.80 10.40,4.80"/>
        <lane id="0Ei_1" index="1" speed="13.89" length="79.20" shape="89.60,1.60 10.40,1.60"/>
    </edge>
    <edge id="0Ni" from="5" to="0" priority="-1">
        <lane id="0Ni_0" index="0" speed="13.89" length="89.60" shape="-4.80,100.00 -4.80,10.40"/>
        <lane id="0Ni_1" index="1" speed="13.89" length="89.60" shape="-1.60,100.00 -1.60,10.40"/>
    </edge>
    <edge id="0No" from="0" to="5" priority="-1">
        <lane id="0No_0" index="0" speed="13.89" length="89.60" shape="4.80,10.40 4.80,100.00"/>
        <lane id="0No_1" index="1" speed="13.89" length="89.60" shape="1.60,10.40 1.60,100.00"/>
    </edge>
    <edge id="0Si" from="2" to="0" priority="-1">
        <lane id="0Si_0" index="0" speed="13.89" length="79.20" shape="4.80,-89.60 4.80,-10.40"/>
        <lane id="0Si_1" index="1" speed="13.89" length="79.20" shape="1.60,-89.60 1.60,-10.40"/>
    </edge>
    <edge id="0Wi" from="6" to="0" priority="-1">
        <lane id="0Wi_0" index="0" speed="13.89" length="89.60" shape="-100.00,-4.80 -10.40,-4.80"/>
        <lane id="0Wi_1" index="1" speed="13.89" length="89.60" shape="-100.00,-1.60 -10.40,-1.60"/>
    </edge>
    <edge id="0Wo" from="0" to="6" priority="-1">
        <lane id="0Wo_0" index="0" speed="13.89" length="89.60" shape="-10.40,4.80 -100.00,4.80"/>
        <lane id="0Wo_1" index="1" speed="13.89" length="89.60" shape="-10.40,1.60 -100.00,1.60"/>
    </edge>
    <edge id="1Ei" from="11" to="1" priority="-1">
        <lane id="1Ei_0" index="0" speed="13.89" length="89.60" shape="200.00,4.80 110.40,4.80"/>
        <lane id="1Ei_1" index="1" speed="13.89" length="89.60" shape="200.00,1.60 110.40,1.60"/>
    </edge>
    <edge id="1Eo" from="1" to="11" priority="-1">
        <lane id="1Eo_0" index="0" speed="13.89" length="89.60" shape="110.40,-4.80 200.00,-4.80"/>
        <lane id="1Eo_1" index="1" speed="13.89" length="89.60" shape="110.40,-1.60 200.00,-1.60"/>
    </edge>
    <edge id="1Ni" from="4" to="1" priority="-1">
        <lane id="1Ni_0" index="0" speed="13.89" length="89.60" shape="95.20,100.00 95.20,10.40"/>
        <lane id="1Ni_1" index="1" speed="13.89" length="89.60" shape="98.40,100.00 98.40,10.40"/>
    </edge>
    <edge id="1No" from="1" to="4" priority="-1">
        <lane id="1No_0" index="0" speed="13.89" length="89.60" shape="104.80,10.40 104.80,100.00"/>
        <lane id="1No_1" index="1" speed="13.89" length="89.60" shape="101.60,10.40 101.60,100.00"/>
    </edge>
    <edge id="1Si" from="3" to="1" priority="-1">
        <lane id="1Si_0" index="0" speed="13.89" length="79.20" shape="104.80,-89.60 104.80,-10.40"/>
        <lane id="1Si_1" index="1" speed="13.89" length="79.20" shape="101.60,-89.60 101.60,-10.40"/>
    </edge>
    <edge id="1Wi" from="0" to="1" priority="-1">
        <lane id="1Wi_0" index="0" speed="13.89" length="79.20" shape="10.40,-4.80 89.60,-4.80"/>
        <lane id="1Wi_1" index="1" speed="13.89" length="79.20" shape="10.40,-1.60 89.60,-1.60"/>
    </edge>
    <edge id="2Ei" from="3" to="2" priority="-1">
        <lane id="2Ei_0" index="0" speed="13.89" length="79.20" shape="89.60,-95.20 10.40,-95.20"/>
        <lane id="2Ei_1" index="1" speed="13.89" length="79.20" shape="89.60,-98.40 10.40,-98.40"/>
    </edge>
    <edge id="2Ni" from="0" to="2" priority="-1">
        <lane id="2Ni_0" index="0" speed="13.89" length="79.20" shape="-4.80,-10.40 -4.80,-89.60"/>
        <lane id="2Ni_1" index="1" speed="13.89" length="79.20" shape="-1.60,-10.40 -1.60,-89.60"/>
    </edge>
    <edge id="2Si" from="8" to="2" priority="-1">
        <lane id="2Si_0" index="0" speed="13.89" length="89.60" shape="4.80,-200.00 4.80,-110.40"/>
        <lane id="2Si_1" index="1" speed="13.89" length="89.60" shape="1.60,-200.00 1.60,-110.40"/>
    </edge>
    <edge id="2So" from="2" to="8" priority="-1">
        <lane id="2So_0" index="0" speed="13.89" length="89.60" shape="-4.80,-110.40 -4.80,-200.00"/>
        <lane id="2So_1" index="1" speed="13.89" length="89.60" shape="-1.60,-110.40 -1.60,-200.00"/>
    </edge>
    <edge id="2Wi" from="7" to="2" priority="-1">
        <lane id="2Wi_0" index="0" speed="13.89" length="89.60" shape="-100.00,-104.80 -10.40,-104.80"/>
        <lane id="2Wi_1" index="1" speed="13.89" length="89.60" shape="-100.00,-101.60 -10.40,-101.60"/>
    </edge>
    <edge id="2Wo" from="2" to="7" priority="-1">
        <lane id="2Wo_0" index="0" speed="13.89" length="89.60" shape="-10.40,-95.20 -100.00,-95.20"/>
        <lane id="2Wo_1" index="1" speed="13.89" length="89.60" shape="-10.40,-98.40 -100.00,-98.40"/>
    </edge>
    <edge id="3Ei" from="10" to="3" priority="-1">
        <lane id="3Ei_0" index="0" speed="13.89" length="89.60" shape="200.00,-95.20 110.40,-95.20"/>
        <lane id="3Ei_1" index="1" speed="13.89" length="89.60" shape="200.00,-98.40 110.40,-98.40"/>
    </edge>
    <edge id="3Eo" from="3" to="10" priority="-1">
        <lane id="3Eo_0" index="0" speed="13.89" length="89.60" shape="110.40,-104.80 200.00,-104.80"/>
        <lane id="3Eo_1" index="1" speed="13.89" length="89.60" shape="110.40,-101.60 200.00,-101.60"/>
    </edge>
    <edge id="3Ni" from="1" to="3" priority="-1">
        <lane id="3Ni_0" index="0" speed="13.89" length="79.20" shape="95.20,-10.40 95.20,-89.60"/>
        <lane id="3Ni_1" index="1" speed="13.89" length="79.20" shape="98.40,-10.40 98.40,-89.60"/>
    </edge>
    <edge id="3Si" from="9" to="3" priority="-1">
        <lane id="3Si_0" index="0" speed="13.89" length="89.60" shape="104.80,-200.00 104.80,-110.40"/>
        <lane id="3Si_1" index="1" speed="13.89" length="89.60" shape="101.60,-200.00 101.60,-110.40"/>
    </edge>
    <edge id="3So" from="3" to="9" priority="-1">
        <lane id="3So_0" index="0" speed="13.89" length="89.60" shape="95.20,-110.40 95.20,-200.00"/>
        <lane id="3So_1" index="1" speed="13.89" length="89.60" shape="98.40,-110.40 98.40,-200.00"/>
    </edge>
    <edge id="3Wi" from="2" to="3" priority="-1">
        <lane id="3Wi_0" index="0" speed="13.89" length="79.20" shape="10.40,-104.80 89.60,-104.80"/>
        <lane id="3Wi_1" index="1" speed="13.89" length="79.20" shape="10.40,-101.60 89.60,-101.60"/>
    </edge>

    <tlLogic id="0" type="static" programID="0" offset="0">
        <phase duration="42" state="GGGgrrrrGGGgrrrr"/>
        <phase duration="3"  state="yyyyrrrryyyyrrrr"/>
        <phase duration="42" state="rrrrGGGgrrrrGGGg"/>
        <phase duration="3"  state="rrrryyyyrrrryyyy"/>
    </tlLogic>
    <tlLogic id="1" type="static" programID="0" offset="0">
        <phase duration="42" state="GGGgrrrrGGGgrrrr"/>
        <phase duration="3"  state="yyyyrrrryyyyrrrr"/>
        <phase duration="42" state="rrrrGGGgrrrrGGGg"/>
        <phase duration="3"  state="rrrryyyyrrrryyyy"/>
    </tlLogic>
    <tlLogic id="2" type="static" programID="0" offset="0">
        <phase duration="42" state="GGGgrrrrGGGgrrrr"/>
        <phase duration="3"  state="yyyyrrrryyyyrrrr"/>
        <phase duration="42" state="rrrrGGGgrrrrGGGg"/>
        <phase duration="3"  state="rrrryyyyrrrryyyy"/>
    </tlLogic>
    <tlLogic id="3" type="static" programID="0" offset="0">
        <phase duration="42" state="GGGgrrrrGGGgrrrr"/>
        <phase duration="3"  state="yyyyrrrryyyyrrrr"/>
        <phase duration="42" state="rrrrGGGgrrrrGGGg"/>
        <phase duration="3"  state="rrrryyyyrrrryyyy"/>
    </tlLogic>

    <junction id="0" type="traffic_light" x="0.00" y="0.00" incLanes="0Ni_0 0Ni_1 0Ei_0 0Ei_1 0Si_0 0Si_1 0Wi_0 0Wi_1" intLanes=":0_0_0 :0_1_0 :0_1_1 :0_16_0 :0_4_0 :0_5_0 :0_5_1 :0_17_0 :0_8_0 :0_9_0 :0_9_1 :0_18_0 :0_12_0 :0_13_0 :0_13_1 :0_19_0" shape="-6.40,10.40 6.40,10.40 6.84,8.18 7.40,7.40 8.18,6.84 9.18,6.51 10.40,6.40 10.40,-6.40 8.18,-6.84 7.40,-7.40 6.84,-8.18 6.51,-9.18 6.40,-10.40 -6.40,-10.40 -6.84,-8.18 -7.40,-7.40 -8.18,-6.84 -9.18,-6.51 -10.40,-6.40 -10.40,6.40 -8.18,6.84 -7.40,7.40 -6.84,8.18 -6.51,9.18">
        <request index="0"  response="0000000000000000" foes="0000000001100000" cont="0"/>
        <request index="1"  response="1000000010000000" foes="1111100011100000" cont="0"/>
        <request index="2"  response="1000000010000000" foes="1111100011100000" cont="0"/>
        <request index="3"  response="1000011010000000" foes="1110011011100000" cont="1"/>
        <request index="4"  response="0000011000000000" foes="0000011000000000" cont="0"/>
        <request index="5"  response="0000111000001111" foes="1000111000001111" cont="0"/>
        <request index="6"  response="0000111000001111" foes="1000111000001111" cont="0"/>
        <request index="7"  response="0110111000001110" foes="0110111000001110" cont="1"/>
        <request index="8"  response="0000000000000000" foes="0110000000000000" cont="0"/>
        <request index="9"  response="1000000010000000" foes="1110000011111000" cont="0"/>
        <request index="10" response="1000000010000000" foes="1110000011111000" cont="0"/>
        <request index="11" response="1000000010000110" foes="1110000011100110" cont="1"/>
        <request index="12" response="0000000000000110" foes="0000000000000110" cont="0"/>
        <request index="13" response="0000111100001110" foes="0000111110001110" cont="0"/>
        <request index="14" response="0000111100001110" foes="0000111110001110" cont="0"/>
        <request index="15" response="0000111001101110" foes="0000111001101110" cont="1"/>
    </junction>
    <junction id="1" type="traffic_light" x="100.00" y="0.00" incLanes="1Ni_0 1Ni_1 1Ei_0 1Ei_1 1Si_0 1Si_1 1Wi_0 1Wi_1" intLanes=":1_0_0 :1_1_0 :1_1_1 :1_16_0 :1_4_0 :1_5_0 :1_5_1 :1_17_0 :1_8_0 :1_9_0 :1_9_1 :1_18_0 :1_12_0 :1_13_0 :1_13_1 :1_19_0" shape="93.60,10.40 106.40,10.40 106.84,8.18 107.40,7.40 108.18,6.84 109.18,6.51 110.40,6.40 110.40,-6.40 108.18,-6.84 107.40,-7.40 106.84,-8.18 106.51,-9.18 106.40,-10.40 93.60,-10.40 93.16,-8.18 92.60,-7.40 91.82,-6.84 90.82,-6.51 89.60,-6.40 89.60,6.40 91.82,6.84 92.60,7.40 93.16,8.18 93.49,9.18">
        <request index="0"  response="0000000000000000" foes="0000000001100000" cont="0"/>
        <request index="1"  response="1000000010000000" foes="1111100011100000" cont="0"/>
        <request index="2"  response="1000000010000000" foes="1111100011100000" cont="0"/>
        <request index="3"  response="1000011010000000" foes="1110011011100000" cont="1"/>
        <request index="4"  response="0000011000000000" foes="0000011000000000" cont="0"/>
        <request index="5"  response="0000111000001111" foes="1000111000001111" cont="0"/>
        <request index="6"  response="0000111000001111" foes="1000111000001111" cont="0"/>
        <request index="7"  response="0110111000001110" foes="0110111000001110" cont="1"/>
        <request index="8"  response="0000000000000000" foes="0110000000000000" cont="0"/>
        <request index="9"  response="1000000010000000" foes="1110000011111000" cont="0"/>
        <request index="10" response="1000000010000000" foes="1110000011111000" cont="0"/>
        <request index="11" response="1000000010000110" foes="1110000011100110" cont="1"/>
        <request index="12" response="0000000000000110" foes="0000000000000110" cont="0"/>
        <request index="13" response="0000111100001110" foes="0000111110001110" cont="0"/>
        <request index="14" response="0000111100001110" foes="0000111110001110" cont="0"/>
        <request index="15" response="0000111001101110" foes="0000111001101110" cont="1"/>
    </junction>
    <junction id="10" type="dead_end" x="200.00" y="-100.00" incLanes="3Eo_0 3Eo_1" intLanes="" shape="200.00,-100.00 200.00,-106.40 200.00,-100.00"/>
    <junction id="11" type="dead_end" x="200.00" y="0.00" incLanes="1Eo_0 1Eo_1" intLanes="" shape="200.00,0.00 200.00,-6.40 200.00,0.00"/>
    <junction id="2" type="traffic_light" x="0.00" y="-100.00" incLanes="2Ni_0 2Ni_1 2Ei_0 2Ei_1 2Si_0 2Si_1 2Wi_0 2Wi_1" intLanes=":2_0_0 :2_1_0 :2_1_1 :2_16_0 :2_4_0 :2_5_0 :2_5_1 :2_17_0 :2_8_0 :2_9_0 :2_9_1 :2_18_0 :2_12_0 :2_13_0 :2_13_1 :2_19_0" shape="-6.40,-89.60 6.40,-89.60 6.84,-91.82 7.40,-92.60 8.18,-93.16 9.18,-93.49 10.40,-93.60 10.40,-106.40 8.18,-106.84 7.40,-107.40 6.84,-108.18 6.51,-109.18 6.40,-110.40 -6.40,-110.40 -6.84,-108.18 -7.40,-107.40 -8.18,-106.84 -9.18,-106.51 -10.40,-106.40 -10.40,-93.60 -8.18,-93.16 -7.40,-92.60 -6.84,-91.82 -6.51,-90.82">
        <request index="0"  response="0000000000000000" foes="0000000001100000" cont="0"/>
        <request index="1"  response="1000000010000000" foes="1111100011100000" cont="0"/>
        <request index="2"  response="1000000010000000" foes="1111100011100000" cont="0"/>
        <request index="3"  response="1000011010000000" foes="1110011011100000" cont="1"/>
        <request index="4"  response="0000011000000000" foes="0000011000000000" cont="0"/>
        <request index="5"  response="0000111000001111" foes="1000111000001111" cont="0"/>
        <request index="6"  response="0000111000001111" foes="1000111000001111" cont="0"/>
        <request index="7"  response="0110111000001110" foes="0110111000001110" cont="1"/>
        <request index="8"  response="0000000000000000" foes="0110000000000000" cont="0"/>
        <request index="9"  response="1000000010000000" foes="1110000011111000" cont="0"/>
        <request index="10" response="1000000010000000" foes="1110000011111000" cont="0"/>
        <request index="11" response="1000000010000110" foes="1110000011100110" cont="1"/>
        <request index="12" response="0000000000000110" foes="0000000000000110" cont="0"/>
        <request index="13" response="0000111100001110" foes="0000111110001110" cont="0"/>
        <request index="14" response="0000111100001110" foes="0000111110001110" cont="0"/>
        <request index="15" response="0000111001101110" foes="0000111001101110" cont="1"/>
    </junction>
    <junction id="3" type="traffic_light" x="100.00" y="-100.00" incLanes="3Ni_0 3Ni_1 3Ei_0 3Ei_1 3Si_0 3Si_1 3Wi_0 3Wi_1" intLanes=":3_0_0 :3_1_0 :3_1_1 :3_16_0 :3_4_0 :3_5_0 :3_5_1 :3_17_0 :3_8_0 :3_9_0 :3_9_1 :3_18_0 :3_12_0 :3_13_0 :3_13_1 :3_19_0" shape="93.60,-89.60 106.40,-89.60 106.84,-91.82 107.40,-92.60 108.18,-93.16 109.18,-93.49 110.40,-93.60 110.40,-106.40 108.18,-106.84 107.40,-107.40 106.84,-108.18 106.51,-109.18 106.40,-110.40 93.60,-110.40 93.16,-108.18 92.60,-107.40 91.82,-106.84 90.82,-106.51 89.60,-106.40 89.60,-93.60 91.82,-93.16 92.60,-92.60 93.16,-91.82 93.49,-90.82">
        <request index="0"  response="0000000000000000" foes="0000000001100000" cont="0"/>
        <request index="1"  response="1000000010000000" foes="1111100011100000" cont="0"/>
        <request index="2"  response="1000000010000000" foes="1111100011100000" cont="0"/>
        <request index="3"  response="1000011010000000" foes="1110011011100000" cont="1"/>
        <request index="4"  response="0000011000000000" foes="0000011000000000" cont="0"/>
        <request index="5"  response="0000111000001111" foes="1000111000001111" cont="0"/>
        <request index="6"  response="0000111000001111" foes="1000111000001111" cont="0"/>
        <request index="7"  response="0110111000001110" foes="0110111000001110" cont="1"/>
        <request index="8"  response="0000000000000000" foes="0110000000000000" cont="0"/>
        <request index="9"  response="1000000010000000" foes="1110000011111000" cont="0"/>
        <request index="10" response="1000000010000000" foes="1110000011111000" cont="0"/>
        <request index="11" response="1000000010000110" foes="1110000011100110" cont="1"/>
        <request index="12" response="0000000000000110" foes="0000000000000110" cont="0"/>