<?xml version="1.0" encoding="UTF-8"?>

<!-- generated on 2024-09-04 17:01:26 by Eclipse SUMO netedit Version 1.19.0
-->

<additional xmlns:xsi="http://www.w3.org/2001/XMLSchema-instance" xsi:noNamespaceSchemaLocation="http://sumo.dlr.de/xsd/additional_file.xsd">
    <!-- Detectors -->
    <inductionLoop id="e1_001" lane="0Ni_1" pos="86.75" period="300.00" file="./self_e1/e1_001.xml"/>
    <inductionLoop id="e1_002" lane="0Ni_0" pos="86.39" period="300.00" file="./self_e1/e1_002.xml"/>
    <inductionLoop id="e1_003" lane="0Wi_1" pos="86.40" period="300.00" file="./self_e1/e1_003.xml"/>
    <inductionLoop id="e1_004" lane="0Wi_0" pos="86.49" period="300.00" file="./self_e1/e1_004.xml"/>
    <inductionLoop id="e1_005" lane="0Si_1" pos="76.39" period="300.00" file="./self_e1/e1_005.xml"/>
    <inductionLoop id="e1_006" lane="0Si_0" pos="76.39" period="300.00" file="./self_e1/e1_006.xml"/>
    <inductionLoop id="e1_007" lane="0Ei_1" pos="76.38" period="300.00" file="./self_e1/e1_007.xml"/>
    <inductionLoop id="e1_008" lane="0Ei_0" pos="76.29" period="300.00" file="./self_e1/e1_008.xml"/>
    <inductionLoop id="e1_009" lane="1Ni_1" pos="86.57" period="300.00" file="./self_e1/e1_009.xml"/>
    <inductionLoop id="e1_010" lane="1Ni_0" pos="86.48" period="300.00" file="./self_e1/e1_010.xml"/>
    <inductionLoop id="e1_011" lane="1Wi_1" pos="76.10" period="300.00" file="./self_e1/e1_011.xml"/>
    <inductionLoop id="e1_012" lane="1Wi_0" pos="76.01" period="300.00" file="./self_e1/e1_012.xml"/>
    <inductionLoop id="e1_013" lane="1Si_1" pos="76.21" period="300.00" file="./self_e1/e1_013.xml"/>
    <inductionLoop id="e1_014" lane="1Si_0" pos="76.21" period="300.00" file="./self_e1/e1_014.xml"/>
    <inductionLoop id="e1_015" lane="1Ei_1" pos="86.50" period="300.00" file="./self_e1/e1_015.xml"/>
    <inductionLoop id="e1_016" lane="1Ei_0" pos="86.68" period="300.00" file="./self_e1/e1_016.xml"/>
    <inductionLoop id="e1_017" lane="2Ni_1" pos="75.84" period="300.00" file="./self_e1/e1_017.xml"/>
    <inductionLoop id="e1_018" lane="2Ni_0" pos="75.72" period="300.00" file="./self_e1/e1_018.xml"/>
    <inductionLoop id="e1_019" lane="2Wi_1" pos="86.69" period="300.00" file="./self_e1/e1_019.xml"/>
    <inductionLoop id="e1_020" lane="2Wi_0" pos="86.45" period="300.00" file="./self_e1/e1_020.xml"/>
    <inductionLoop id="e1_021" lane="2Si_1" pos="86.77" period="300.00" file="./self_e1/e1_021.xml"/>
    <inductionLoop id="e1_022" lane="2Si_0" pos="86.67" period="300.00" file="./self_e1/e1_022.xml"/>
    <inductionLoop id="e1_023" lane="2Ei_1" pos="76.19" period="300.00" file="./self_e1/e1_023.xml"/>
    <inductionLoop id="e1_024" lane="2Ei_0" pos="76.19" period="300.00" file="./self_e1/e1_024.xml"/>
    <inductionLoop id="e1_025" lane="3Ni_1" pos="75.92" period="300.00" file="./self_e1/e1_025.xml"/>
    <inductionLoop id="e1_026" lane="3Ni_0" pos="75.83" period="300.00" file="./self_e1/e1_026.xml"/>
    <inductionLoop id="e1_027" lane="3Wi_1" pos="76.20" period="300.00" file="./self_e1/e1_027.xml"/>
    <inductionLoop id="e1_028" lane="3Wi_0" pos="75.92" period="300.00" file="./self_e1/e1_028.xml"/>
    <inductionLoop id="e1_029" lane="3Si_1" pos="86.86" period="300.00" file="./self_e1/e1_029.xml"/>
    <inductionLoop id="e1_030" lane="3Si_0" pos="86.58" period="300.00" file="./self_e1/e1_030.xml"/>
    <inductionLoop id="e1_031" lane="3Ei_1" pos="86.40" period="300.00" file="./self_e1/e1_031.xml"/>
    <inductionLoop id="e1_032" lane="3Ei_0" pos="86.95" period="300.00" file="./self_e1/e1_032.xml"/>
</additional>
