<?xml version="1.0" encoding="UTF-8"?>

<!-- generated on 2024-08-30 10:57:59 by Eclipse SUMO netedit Version 1.19.0
-->

<routes xmlns:xsi="http://www.w3.org/2001/XMLSchema-instance" xsi:noNamespaceSchemaLocation="http://sumo.dlr.de/xsd/routes_file.xsd">
    <!-- Vehicles, persons and containers (sorted by depart) -->
   
    <flow id="f_10" begin="0.00" from="0Ei" to="0No" end="3600.00" vehsPerHour="50"/>
    <flow id="f_11" begin="0.00" from="0Ei" to="2Ni" end="3600.00" vehsPerHour="50"/>

    <flow id="f_15" begin="0.00" from="1Wi" to="1Wo" end="3600.00" vehsPerHour="100"/>
    <flow id="f_16" begin="0.00" from="1Wi" to="1No" end="3600.00" vehsPerHour="50"/>
    <flow id="f_17" begin="0.00" from="1Wi" to="3Ni" end="3600.00" vehsPerHour="50"/>
   
    <flow id="f_21" begin="0.00" from="1Ei" to="0Ei" end="3600.00" vehsPerHour="50"/>
    <flow id="f_22" begin="0.00" from="1Ei" to="1No" end="3600.00" vehsPerHour="50"/>
    <flow id="f_23" begin="0.00" from="1Ei" to="3Ni" end="3600.00" vehsPerHour="50"/>

    <flow id="f_27" begin="0.00" from="2Wi" to="3Wi" end="3600.00" vehsPerHour="50"/>
    <flow id="f_28" begin="0.00" from="2Wi" to="0Si" end="3600.00" vehsPerHour="50"/>
    <flow id="f_29" begin="0.00" from="2Wi" to="2No" end="3600.00" vehsPerHour="100"/>
    <flow id="f_3" begin="0.00" from="0Wi" to="1Wi" end="3600.00" vehsPerHour="50"/>

    <flow id="f_33" begin="0.00" from="2Ei" to="2Wo" end="3600.00" vehsPerHour="50"/>
    <flow id="f_34" begin="0.00" from="2Ei" to="0Si" end="3600.00" vehsPerHour="50"/>
    <flow id="f_35" begin="0.00" from="2Ei" to="2No" end="3600.00" vehsPerHour="100"/>

    <flow id="f_39" begin="0.00" from="3Wi" to="3Wo" end="3600.00" vehsPerHour="50"/>
    <flow id="f_4" begin="0.00" from="0Wi" to="0No" end="3600.00" vehsPerHour="100"/>
    <flow id="f_40" begin="0.00" from="3Wi" to="1Si" end="3600.00" vehsPerHour="50"/>
    <flow id="f_41" begin="0.00" from="3Wi" to="7Ni" end="3600.00" vehsPerHour="100"/>
  
    <flow id="f_45" begin="0.00" from="3Ei" to="2Ei" end="3600.00" vehsPerHour="50"/>
    <flow id="f_46" begin="0.00" from="3Ei" to="7Ni" end="3600.00" vehsPerHour="50"/>
    <flow id="f_47" begin="0.00" from="3Ei" to="1Si" end="3600.00" vehsPerHour="50"/>
    <flow id="f_5" begin="0.00" from="0Wi" to="2Ni" end="3600.00" vehsPerHour="50"/>
    
    <flow id="f_9" begin="0.00" from="0Ei" to="0Wo" end="3600.00" vehsPerHour="50"/>
</routes>
