<?xml version="1.0" encoding="UTF-8"?>

<!-- generated on 2024-10-29 13:21:14 by Eclipse SUMO netedit Version 1.19.0
-->

<additional xmlns:xsi="http://www.w3.org/2001/XMLSchema-instance" xsi:noNamespaceSchemaLocation="http://sumo.dlr.de/xsd/additional_file.xsd">
    <!-- Detectors -->
    <inductionLoop id="e1_0" lane="0No_0" pos="233.85" period="300.00" file="e1_0.xml"/>
    <inductionLoop id="e1_000" lane="0Ni_1" pos="236.79" period="10.00" file="./e1/e1_000.xml"/>
    <inductionLoop id="e1_001" lane="0Ni_0" pos="236.92" period="10.00" file="./e1/e1_001.xml"/>
    <inductionLoop id="e1_002" lane="0Wi_1" pos="236.67" period="10.00" file="./e1/e1_002.xml"/>
    <inductionLoop id="e1_003" lane="0Wi_0" pos="236.64" period="10.00" file="./e1/e1_003.xml"/>
    <inductionLoop id="e1_004" lane="0Si_1" pos="223.47" period="10.00" file="./e1/e1_004.xml"/>
    <inductionLoop id="e1_005" lane="0Si_0" pos="223.33" period="10.00" file="./e1/e1_005.xml"/>
    <inductionLoop id="e1_006" lane="0Ei_1" pos="223.37" period="10.00" file="./e1/e1_006.xml"/>
    <inductionLoop id="e1_007" lane="0Ei_0" pos="223.40" period="10.00" file="./e1/e1_007.xml"/>
    <inductionLoop id="e1_008" lane="1Ni_1" pos="236.87" period="10.00" file="./e1/e1_008.xml"/>
    <inductionLoop id="e1_009" lane="1Ni_0" pos="236.97" period="10.00" file="./e1/e1_009.xml"/>
    <inductionLoop id="e1_010" lane="1Wi_1" pos="223.45" period="10.00" file="./e1/e1_010.xml"/>
    <inductionLoop id="e1_011" lane="1Wi_0" pos="223.54" period="10.00" file="./e1/e1_011.xml"/>
    <inductionLoop id="e1_012" lane="1Si_1" pos="223.35" period="10.00" file="./e1/e1_012.xml"/>
    <inductionLoop id="e1_013" lane="1Si_0" pos="223.64" period="10.00" file="./e1/e1_013.xml"/>
    <inductionLoop id="e1_014" lane="1Ei_1" pos="135.85" period="10.00" file="./e1/e1_014.xml"/>
    <inductionLoop id="e1_015" lane="1Ei_0" pos="135.72" period="10.00" file="./e1/e1_015.xml"/>
    <inductionLoop id="e1_024" lane="2Ni_1" pos="223.56" period="10.00" file="./e1/e1_024.xml"/>
    <inductionLoop id="e1_025" lane="2Ni_0" pos="223.34" period="10.00" file="./e1/e1_025.xml"/>
    <inductionLoop id="e1_026" lane="2Wi_1" pos="236.93" period="10.00" file="./e1/e1_026.xml"/>
    <inductionLoop id="e1_027" lane="2Wi_0" pos="236.88" period="10.00" file="./e1/e1_027.xml"/>
    <inductionLoop id="e1_028" lane="2Si_1" pos="136.63" period="10.00" file="./e1/e1_028.xml"/>
    <inductionLoop id="e1_029" lane="2Si_0" pos="136.80" period="10.00" file="./e1/e1_029.xml"/>
    <inductionLoop id="e1_030" lane="2Ei_1" pos="223.51" period="10.00" file="./e1/e1_030.xml"/>
    <inductionLoop id="e1_031" lane="2Ei_0" pos="223.48" period="10.00" file="./e1/e1_031.xml"/>
    <inductionLoop id="e1_032" lane="3Ni_1" pos="223.47" period="10.00" file="./e1/e1_032.xml"/>
    <inductionLoop id="e1_033" lane="3Ni_0" pos="223.47" period="10.00" file="./e1/e1_033.xml"/>
    <inductionLoop id="e1_034" lane="3Wi_1" pos="223.42" period="10.00" file="./e1/e1_034.xml"/>
    <inductionLoop id="e1_035" lane="3Wi_0" pos="223.49" period="10.00" file="./e1/e1_035.xml"/>
    <inductionLoop id="e1_036" lane="3Si_1" pos="136.83" period="10.00" file="./e1/e1_036.xml"/>
    <inductionLoop id="e1_037" lane="3Si_0" pos="136.74" period="10.00" file="./e1/e1_037.xml"/>
    <inductionLoop id="e1_038" lane="3Ei_1" pos="136.71" period="10.00" file="./e1/e1_038.xml"/>
    <inductionLoop id="e1_039" lane="3Ei_0" pos="136.84" period="10.00" file="./e1/e1_039.xml"/>
    <inductionLoop id="e1_1" lane="0No_1" pos="233.60" period="300.00" file="e1_1.xml"/>
    <inductionLoop id="e1_10" lane="2Wi_1" pos="7.51" period="300.00" file="e1_10.xml"/>
    <inductionLoop id="e1_11" lane="2Wi_0" pos="7.92" period="300.00" file="e1_11.xml"/>
    <inductionLoop id="e1_12" lane="2So_0" pos="133.00" period="300.00" file="e1_12.xml"/>
    <inductionLoop id="e1_13" lane="2So_1" pos="131.88" period="300.00" file="e1_13.xml"/>
    <inductionLoop id="e1_14" lane="2Si_1" pos="8.39" period="300.00" file="e1_14.xml"/>
    <inductionLoop id="e1_15" lane="2Si_0" pos="7.72" period="300.00" file="e1_15.xml"/>
    <inductionLoop id="e1_16" lane="3So_0" pos="133.00" period="300.00" file="e1_16.xml"/>
    <inductionLoop id="e1_17" lane="3So_1" pos="131.66" period="300.00" file="e1_17.xml"/>
    <inductionLoop id="e1_18" lane="3Si_1" pos="7.72" period="300.00" file="e1_18.xml"/>
    <inductionLoop id="e1_19" lane="3Si_0" pos="8.16" period="300.00" file="e1_19.xml"/>
    <inductionLoop id="e1_2" lane="0Ni_1" pos="5.75" period="300.00" file="e1_2.xml"/>
    <inductionLoop id="e1_20" lane="3Eo_0" pos="133.77" period="300.00" file="e1_20.xml"/>
    <inductionLoop id="e1_21" lane="3Eo_1" pos="133.10" period="300.00" file="e1_21.xml"/>
    <inductionLoop id="e1_22" lane="3Ei_1" pos="6.95" period="300.00" file="e1_22.xml"/>
    <inductionLoop id="e1_23" lane="3Ei_0" pos="6.95" period="300.00" file="e1_23.xml"/>
    <inductionLoop id="e1_24" lane="1Eo_0" pos="132.24" period="300.00" file="e1_24.xml"/>
    <inductionLoop id="e1_25" lane="1Eo_1" pos="132.01" period="300.00" file="e1_25.xml"/>
    <inductionLoop id="e1_26" lane="1Ei_1" pos="8.26" period="300.00" file="e1_26.xml"/>
    <inductionLoop id="e1_27" lane="1Ei_0" pos="8.03" period="300.00" file="e1_27.xml"/>
    <inductionLoop id="e1_28" lane="1No_0" pos="233.49" period="300.00" file="e1_28.xml"/>
    <inductionLoop id="e1_29" lane="1No_1" pos="233.94" period="300.00" file="e1_29.xml"/>
    <inductionLoop id="e1_3" lane="0Ni_0" pos="6.00" period="300.00" file="e1_3.xml"/>
    <inductionLoop id="e1_30" lane="1Ni_0" pos="5.44" period="300.00" file="e1_30.xml"/>
    <inductionLoop id="e1_31" lane="1Ni_1" pos="5.22" period="300.00" file="e1_31.xml"/>
    <inductionLoop id="e1_4" lane="0Wo_0" pos="234.96" period="300.00" file="e1_4.xml"/>
    <inductionLoop id="e1_5" lane="0Wo_1" pos="233.71" period="300.00" file="e1_5.xml"/>
    <inductionLoop id="e1_6" lane="0Wi_1" pos="6.44" period="300.00" file="e1_6.xml"/>
    <inductionLoop id="e1_7" lane="0Wi_0" pos="6.13" period="300.00" file="e1_7.xml"/>
    <inductionLoop id="e1_8" lane="2Wo_0" pos="232.29" period="300.00" file="e1_8.xml"/>
    <inductionLoop id="e1_9" lane="2Wo_1" pos="232.09" period="300.00" file="e1_9.xml"/>
</additional>
