<?xml version="1.0" encoding="UTF-8"?>

<!-- generated on 2024-09-04 14:56:07 by Eclipse SUMO duarouter Version 1.19.0
<configuration xmlns:xsi="http://www.w3.org/2001/XMLSchema-instance" xsi:noNamespaceSchemaLocation="http://sumo.dlr.de/xsd/duarouterConfiguration.xsd">

    <input>
        <net-file value="22Grid2lanes_fuben.net.xml"/>
        <route-files value="trips.trips.xml"/>
    </input>

    <output>
        <output-file value="ceshi.rou.xml"/>
    </output>

</configuration>
-->

<routes xmlns:xsi="http://www.w3.org/2001/XMLSchema-instance" xsi:noNamespaceSchemaLocation="http://sumo.dlr.de/xsd/routes_file.xsd">
    <vehicle id="0" depart="0.00" departLane="best" departPos="random" departSpeed="max">
        <route edges="3Si 2Ei 2Wo"/>
    </vehicle>
    <vehicle id="1" depart="0.00" departLane="best" departPos="random" departSpeed="max">
        <route edges="0Wi 1Wi 1Eo"/>
    </vehicle>
    <vehicle id="2" depart="0.00" departLane="best" departPos="random" departSpeed="max">
        <route edges="0Ni 1Wi 3Ni 2Ei 0Si 0No"/>
    </vehicle>
    <vehicle id="3" depart="0.00" departLane="best" departPos="random" departSpeed="max">
        <route edges="1Ni 0Ei 0No"/>
    </vehicle>
    <vehicle id="4" depart="1.00" departLane="best" departPos="random" departSpeed="max">
        <route edges="3Ei 2Ei 0Si 1Wi 3Ni 3Eo"/>
    </vehicle>
    <vehicle id="5" depart="1.00" departLane="best" departPos="random" departSpeed="max">
        <route edges="2Si 0Si 0Wo"/>
    </vehicle>
    <vehicle id="6" depart="2.00" departLane="best" departPos="random" departSpeed="max">
        <route edges="3Si 1Si 0Ei 0No"/>
    </vehicle>
    <vehicle id="7" depart="4.00" departLane="best" departPos="random" departSpeed="max">
        <route edges="3Ei 2Ei 0Si 0Wo"/>
    </vehicle>
    <vehicle id="8" depart="5.00" departLane="best" departPos="random" departSpeed="max">
        <route edges="3Si 1Si 1No"/>
    </vehicle>
    <vehicle id="9" depart="6.00" departLane="best" departPos="random" departSpeed="max">
        <route edges="3Si 2Ei"/>
    </vehicle>
    <vehicle id="10" depart="6.00" departLane="best" departPos="random" departSpeed="max">
        <route edges="1Ni 3Ni 2Ei 0Si 1Wi 1No"/>
    </vehicle>
    <vehicle id="11" depart="6.00" departLane="best" departPos="random" departSpeed="max">
        <route edges="2Si 2Wo"/>
    </vehicle>
    <vehicle id="12" depart="7.00" departLane="best" departPos="random" departSpeed="max">
        <route edges="0Ni 2Ni 2Wo"/>
    </vehicle>
    <vehicle id="13" depart="7.00" departLane="best" departPos="random" departSpeed="max">
        <route edges="2Wi 0Si 0Wo"/>
    </vehicle>
    <vehicle id="14" depart="7.00" departLane="best" departPos="random" departSpeed="max">
        <route edges="3Ei 1Si 1No"/>
    </vehicle>
    <vehicle id="15" depart="8.00" departLane="best" departPos="random" departSpeed="max">
        <route edges="3Si 1Si 0Ei 0Wo"/>
    </vehicle>
    <vehicle id="16" depart="8.00" departLane="best" departPos="random" departSpeed="max">
        <route edges="3Si 2Ei 2Wo"/>
    </vehicle>
    <vehicle id="17" depart="9.00" departLane="best" departPos="random" departSpeed="max">
        <route edges="3Ei 1Si 1No"/>
    </vehicle>
    <vehicle id="18" depart="11.00" departLane="best" departPos="random" departSpeed="max">
        <route edges="3Si 1Si 1No"/>
    </vehicle>
    <vehicle id="19" depart="12.00" departLane="best" departPos="random" departSpeed="max">
        <route edges="2Si 0Si 1Wi 3Ni 2Ei 2So"/>
    </vehicle>
    <vehicle id="20" depart="12.00" departLane="best" departPos="random" departSpeed="max">
        <route edges="1Ni 3Ni 2Ei 2Wo"/>
    </vehicle>
    <vehicle id="21" depart="12.00" departLane="best" departPos="random" departSpeed="max">
        <route edges="3Si 1Si 1Eo"/>
    </vehicle>
    <vehicle id="22" depart="14.00" departLane="best" departPos="random" departSpeed="max">
        <route edges="2Si 0Si 0No"/>
    </vehicle>
    <vehicle id="23" depart="14.00" departLane="best" departPos="random" departSpeed="max">
        <route edges="2Wi 2So"/>
    </vehicle>
    <vehicle id="24" depart="14.00" departLane="best" departPos="random" departSpeed="max">
        <route edges="1Ei 3Ni 3So"/>
    </vehicle>
    <vehicle id="25" depart="15.00" departLane="best" departPos="random" departSpeed="max">
        <route edges="0Wi 2Ni 2Wo"/>
    </vehicle>
    <vehicle id="26" depart="15.00" departLane="best" departPos="random" departSpeed="max">
        <route edges="0Ni 1Wi 1Eo"/>
    </vehicle>
    <vehicle id="27" depart="15.00" departLane="best" departPos="random" departSpeed="max">
        <route edges="2Wi 3Wi 3Eo"/>
    </vehicle>
    <vehicle id="28" depart="16.00" departLane="best" departPos="random" departSpeed="max">
        <route edges="2Si 0Si 1Wi 1Eo"/>
    </vehicle>
    <vehicle id="29" depart="16.00" departLane="best" departPos="random" departSpeed="max">
        <route edges="3Si 2Ei 0Si 1Wi 3Ni 3So"/>
    </vehicle>
    <vehicle id="30" depart="16.00" departLane="best" departPos="random" departSpeed="max">
        <route edges="2Si 0Si 1Wi 3Ni 2Ei 2So"/>
    </vehicle>
    <vehicle id="31" depart="16.00" departLane="best" departPos="random" departSpeed="max">
        <route edges="0Ni 0Wo"/>
    </vehicle>
    <vehicle id="32" depart="17.00" departLane="best" departPos="random" departSpeed="max">
        <route edges="3Si 2Ei 0Si 1Wi 3Ni 3So"/>
    </vehicle>
    <vehicle id="33" depart="17.00" departLane="best" departPos="random" departSpeed="max">
        <route edges="3Si 3Eo"/>
    </vehicle>
    <vehicle id="34" depart="17.00" departLane="best" departPos="random" departSpeed="max">
        <route edges="1Ei 3Ni 3So"/>
    </vehicle>
    <vehicle id="35" depart="17.00" departLane="best" departPos="random" departSpeed="max">
        <route edges="0Ni 1Wi 1No"/>
    </vehicle>
    <vehicle id="36" depart="18.00" departLane="best" departPos="random" departSpeed="max">
        <route edges="1Ei 3Ni 3Eo"/>
    </vehicle>
    <vehicle id="37" depart="18.00" departLane="best" departPos="random" departSpeed="max">
        <route edges="3Ei 2Ei 2Wo"/>
    </vehicle>
    <vehicle id="39" depart="19.00" departLane="best" departPos="random" departSpeed="max">
        <route edges="0Si 0Wo"/>
    </vehicle>
    <vehicle id="40" depart="19.00" departLane="best" departPos="random" departSpeed="max">
        <route edges="1Ni 3Ni 2Ei 2Wo"/>
    </vehicle>
    <vehicle id="41" depart="20.00" departLane="best" departPos="random" departSpeed="max">
        <route edges="2Wi 2So"/>
    </vehicle>
    <vehicle id="42" depart="20.00" departLane="best" departPos="random" departSpeed="max">
        <route edges="3Ei 3So"/>
    </vehicle>
    <vehicle id="43" depart="20.00" departLane="best" departPos="random" departSpeed="max">
        <route edges="2Wi 0Si 0No"/>
    </vehicle>
    <vehicle id="44" depart="20.00" departLane="best" departPos="random" departSpeed="max">
        <route edges="1Ni 3Ni 2Ei 2Wo"/>
    </vehicle>
    <vehicle id="45" depart="20.00" departLane="best" departPos="random" departSpeed="max">
        <route edges="0Wi 2Ni 2So"/>
    </vehicle>
    <vehicle id="46" depart="22.00" departLane="best" departPos="random" departSpeed="max">
        <route edges="2Wi 3Wi 1Si 1No"/>
    </vehicle>
    <vehicle id="47" depart="22.00" departLane="best" departPos="random" departSpeed="max">
        <route edges="2Wi 0Si 1Wi 3Ni 2Ei 2Wo"/>
    </vehicle>
    <vehicle id="48" depart="23.00" departLane="best" departPos="random" departSpeed="max">
        <route edges="2Si 0Si 1Wi 1No"/>
    </vehicle>
    <vehicle id="49" depart="23.00" departLane="best" departPos="random" departSpeed="max">
        <route edges="1Ni 3Ni 2Ei 2Wo"/>
    </vehicle>
    <vehicle id="50" depart="23.00" departLane="best" departPos="random" departSpeed="max">
        <route edges="0Ni 1Wi 1Eo"/>
    </vehicle>
    <vehicle id="51" depart="24.00" departLane="best" departPos="random" departSpeed="max">
        <route edges="3Ei 3So"/>
    </vehicle>
    <vehicle id="52" depart="25.00" departLane="best" departPos="random" departSpeed="max">
        <route edges="3Si 3Eo"/>
    </vehicle>
    <vehicle id="53" depart="25.00" departLane="best" departPos="random" departSpeed="max">
        <route edges="0Wi 2Ni 2Wo"/>
    </vehicle>
    <vehicle id="54" depart="26.00" departLane="best" departPos="random" departSpeed="max">
        <route edges="2Si 3Wi 3So"/>
    </vehicle>
    <vehicle id="55" depart="27.00" departLane="best" departPos="random" departSpeed="max">
        <route edges="1Ni 3Ni 3Eo"/>
    </vehicle>
    <vehicle id="56" depart="27.00" departLane="best" departPos="random" departSpeed="max">
        <route edges="2Wi 0Si 0No"/>
    </vehicle>
    <vehicle id="57" depart="28.00" departLane="best" departPos="random" departSpeed="max">
        <route edges="2Wi 0Si 0Wo"/>
    </vehicle>
    <vehicle id="58" depart="28.00" departLane="best" departPos="random" departSpeed="max">
        <route edges="0Ni 2Ni 3Wi 3Eo"/>
    </vehicle>
    <vehicle id="59" depart="29.00" departLane="best" departPos="random" departSpeed="max">
        <route edges="1Ni 3Ni 3So"/>
    </vehicle>
    <vehicle id="61" depart="29.00" departLane="best" departPos="random" departSpeed="max">
        <route edges="3Ei 1Si 1No"/>
    </vehicle>
    <vehicle id="62" depart="30.00" departLane="best" departPos="random" departSpeed="max">
        <route edges="1Ni 0Ei 2Ni 2So"/>
    </vehicle>
    <vehicle id="63" depart="32.00" departLane="best" departPos="random" departSpeed="max">
        <route edges="3Ei 1Si 1No"/>
    </vehicle>
    <vehicle id="64" depart="32.00" departLane="best" departPos="random" departSpeed="max">
        <route edges="3Si 3Eo"/>
    </vehicle>
    <vehicle id="65" depart="33.00" departLane="best" departPos="random" departSpeed="max">
        <route edges="2Wi 0Si 0Wo"/>
    </vehicle>
    <vehicle id="66" depart="33.00" departLane="best" departPos="random" departSpeed="max">
        <route edges="2Si 0Si 0Wo"/>
    </vehicle>
    <vehicle id="67" depart="33.00" departLane="best" departPos="random" departSpeed="max">
        <route edges="1Ei 3Ni 3So"/>
    </vehicle>
    <vehicle id="68" depart="33.00" departLane="best" departPos="random" departSpeed="max">
        <route edges="3Ei 1Si 1Eo"/>
    </vehicle>
    <vehicle id="69" depart="34.00" departLane="best" departPos="random" departSpeed="max">
        <route edges="3Ei 2Ei 0Si 0Wo"/>
    </vehicle>
    <vehicle id="70" depart="35.00" departLane="best" departPos="random" departSpeed="max">
        <route edges="2Wi 3Wi 1Si 1Eo"/>
    </vehicle>
    <vehicle id="71" depart="35.00" departLane="best" departPos="random" departSpeed="max">
        <route edges="3Ei 3So"/>
    </vehicle>
    <vehicle id="72" depart="35.00" departLane="best" departPos="random" departSpeed="max">
        <route edges="3Ei 2Ei 2Wo"/>
    </vehicle>
    <vehicle id="73" depart="36.00" departLane="best" departPos="random" departSpeed="max">
        <route edges="1Ni 3Ni 2Ei 0Si 1Wi 1No"/>
    </vehicle>
    <vehicle id="74" depart="36.00" departLane="best" departPos="random" departSpeed="max">
        <route edges="1Ei 0Ei 0No"/>
    </vehicle>
    <vehicle id="75" depart="37.00" departLane="best" departPos="random" departSpeed="max">
        <route edges="0Ni 2Ni 3Wi 3Eo"/>
    </vehicle>
    <vehicle id="76" depart="37.00" departLane="best" departPos="random" departSpeed="max">
        <route edges="1Ni 3Ni 3So"/>
    </vehicle>
    <vehicle id="77" depart="37.00" departLane="best" departPos="random" departSpeed="max">
        <route edges="2Wi 3Wi 3So"/>
    </vehicle>
    <vehicle id="78" depart="38.00" departLane="best" departPos="random" departSpeed="max">
        <route edges="3Ei 2Ei 0Si 0Wo"/>
    </vehicle>
    <vehicle id="79" depart="38.00" departLane="best" departPos="random" departSpeed="max">
        <route edges="0Si 1Wi 3Ni 3Eo"/>
    </vehicle>
    <vehicle id="80" depart="39.00" departLane="best" departPos="random" departSpeed="max">
        <route edges="2Wi 2So"/>
    </vehicle>
    <vehicle id="81" depart="39.00" departLane="best" departPos="random" departSpeed="max">
        <route edges="1Ni 0Ei 2Ni"/>
    </vehicle>
    <vehicle id="82" depart="39.00" departLane="best" departPos="random" departSpeed="max">
        <route edges="3Si 1Si 0Ei 0No"/>
    </vehicle>
    <vehicle id="83" depart="39.00" departLane="best" departPos="random" departSpeed="max">
        <route edges="1Ei 3Ni 3So"/>
    </vehicle>
    <vehicle id="84" depart="40.00" departLane="best" departPos="random" departSpeed="max">
        <route edges="2Wi 3Wi 1Si 1No"/>
    </vehicle>
    <vehicle id="85" depart="40.00" departLane="best" departPos="random" departSpeed="max">
        <route edges="0Wi 2Ni 3Wi 3Eo"/>
    </vehicle>
    <vehicle id="86" depart="40.00" departLane="best" departPos="random" departSpeed="max">
        <route edges="1Ni 3Ni 3So"/>
    </vehicle>
    <vehicle id="87" depart="41.00" departLane="best" departPos="random" departSpeed="max">
        <route edges="3Wi 1Si 0Ei 2Ni 2Wo"/>
    </vehicle>
    <vehicle id="89" depart="42.00" departLane="best" departPos="random" departSpeed="max">
        <route edges="1Ni 0Ei 2Ni 2So"/>
    </vehicle>
    <vehicle id="90" depart="43.00" departLane="best" departPos="random" departSpeed="max">
        <route edges="0Si 1Wi 1Eo"/>
    </vehicle>
    <vehicle id="91" depart="43.00" departLane="best" departPos="random" departSpeed="max">
        <route edges="3Ei 1Si 1Eo"/>
    </vehicle>
    <vehicle id="92" depart="43.00" departLane="best" departPos="random" departSpeed="max">
        <route edges="0Wi 1Wi 3Ni 2Ei 0Si 0Wo"/>
    </vehicle>
    <vehicle id="93" depart="44.00" departLane="best" departPos="random" departSpeed="max">
        <route edges="1Ni 3Ni 3Eo"/>
    </vehicle>
    <vehicle id="94" depart="45.00" departLane="best" departPos="random" departSpeed="max">
        <route edges="2Si"/>
    </vehicle>
    <vehicle id="95" depart="46.00" departLane="best" departPos="random" departSpeed="max">
        <route edges="1Ni 0Ei 0No"/>
    </vehicle>
    <vehicle id="96" depart="47.00" departLane="best" departPos="random" departSpeed="max">
        <route edges="3Ei 2Ei 0Si 1Wi 3Ni 3Eo"/>
    </vehicle>
    <vehicle id="97" depart="47.00" departLane="best" departPos="random" departSpeed="max">
        <route edges="2Wi 0Si 1Wi 3Ni 2Ei 2Wo"/>
    </vehicle>
    <vehicle id="98" depart="48.00" departLane="best" departPos="random" departSpeed="max">
        <route edges="2Wi 0Si 1Wi 3Ni 2Ei 2Wo"/>
    </vehicle>
    <vehicle id="99" depart="49.00" departLane="best" departPos="random" departSpeed="max">
        <route edges="2Si 3Wi 3So"/>
    </vehicle>
    <vehicle id="100" depart="49.00" departLane="best" departPos="random" departSpeed="max">
        <route edges="3Ei 2Ei 0Si 0No"/>
    </vehicle>
    <vehicle id="101" depart="49.00" departLane="best" departPos="random" departSpeed="max">
        <route edges="0Wi 1Wi 3Ni 2Ei 0Si 0Wo"/>
    </vehicle>
    <vehicle id="102" depart="51.00" departLane="best" departPos="random" departSpeed="max">
        <route edges="3Si 2Ei 2Wo"/>
    </vehicle>
    <vehicle id="103" depart="51.00" departLane="best" departPos="random" departSpeed="max">
        <route edges="2Si 0Si 0Wo"/>
    </vehicle>
    <vehicle id="104" depart="52.00" departLane="best" departPos="random" departSpeed="max">
        <route edges="0Ni 2Ni 3Wi 3Eo"/>
    </vehicle>
    <vehicle id="105" depart="52.00" departLane="best" departPos="random" departSpeed="max">
        <route edges="0Wi 2Ni 2So"/>
    </vehicle>
    <vehicle id="106" depart="52.00" departLane="best" departPos="random" departSpeed="max">
        <route edges="3Si 1Si 1No"/>
    </vehicle>
    <vehicle id="107" depart="53.00" departLane="best" departPos="random" departSpeed="max">
        <route edges="2Si 3Wi 3Eo"/>
    </vehicle>
    <vehicle id="108" depart="54.00" departLane="best" departPos="random" departSpeed="max">
        <route edges="3Ei 2Ei 0Si 1Wi 3Ni 3Eo"/>
    </vehicle>
    <vehicle id="109" depart="55.00" departLane="best" departPos="random" departSpeed="max">
        <route edges="1Ni 3Ni 2Ei 0Si 1Wi 1No"/>
    </vehicle>
    <vehicle id="110" depart="55.00" departLane="best" departPos="random" departSpeed="max">
        <route edges="0Ni 1Wi 1Eo"/>
    </vehicle>
    <vehicle id="111" depart="55.00" departLane="best" departPos="random" departSpeed="max">
        <route edges="1Ni 0Ei 0Wo"/>
    </vehicle>
    <vehicle id="112" depart="55.00" departLane="best" departPos="random" departSpeed="max">
        <route edges="2Si 0Si 1Wi 1No"/>
    </vehicle>
    <vehicle id="113" depart="55.00" departLane="best" departPos="random" departSpeed="max">
        <route edges="3Ei 3So"/>
    </vehicle>
    <vehicle id="114" depart="55.00" departLane="best" departPos="random" departSpeed="max">
        <route edges="1Ni 3Ni 3So"/>
    </vehicle>
    <vehicle id="115" depart="58.00" departLane="best" departPos="random" departSpeed="max">
        <route edges="1Ei 3Ni 3So"/>
    </vehicle>
    <vehicle id="116" depart="60.00" departLane="best" departPos="random" departSpeed="max">
        <route edges="3Ei 2Ei 0Si 0No"/>
    </vehicle>
    <vehicle id="117" depart="60.00" departLane="best" departPos="random" departSpeed="max">
        <route edges="0Ni 2Ni 3Wi 3So"/>
    </vehicle>
    <vehicle id="118" depart="60.00" departLane="best" departPos="random" departSpeed="max">
        <route edges="0Wi 0No"/>
    </vehicle>
    <vehicle id="119" depart="61.00" departLane="best" departPos="random" departSpeed="max">
        <route edges="2Si 3Wi 3So"/>
    </vehicle>
    <vehicle id="120" depart="63.00" departLane="best" departPos="random" departSpeed="max">
        <route edges="3Ei 1Si 1No"/>
    </vehicle>
    <vehicle id="121" depart="64.00" departLane="best" departPos="random" departSpeed="max">
        <route edges="1Ei 0Ei 0Wo"/>
    </vehicle>
    <vehicle id="122" depart="64.00" departLane="best" departPos="random" departSpeed="max">
        <route edges="1Ni 3Ni 3Eo"/>
    </vehicle>
    <vehicle id="123" depart="65.00" departLane="best" departPos="random" departSpeed="max">
        <route edges="1Ni 3Ni 2Ei 2Wo"/>
    </vehicle>
    <vehicle id="124" depart="65.00" departLane="best" departPos="random" departSpeed="max">
        <route edges="2Si 3Wi 3So"/>
    </vehicle>
    <vehicle id="125" depart="65.00" departLane="best" departPos="random" departSpeed="max">
        <route edges="0Ni 1Wi 1No"/>
    </vehicle>
    <vehicle id="126" depart="67.00" departLane="best" departPos="random" departSpeed="max">
        <route edges="0Wi 2Ni 2Wo"/>
    </vehicle>
    <vehicle id="127" depart="68.00" departLane="best" departPos="random" departSpeed="max">
        <route edges="0Ni 0Wo"/>
    </vehicle>
    <vehicle id="128" depart="68.00" departLane="best" departPos="random" departSpeed="max">
        <route edges="3Si 2Ei 2So"/>
    </vehicle>
    <vehicle id="129" depart="69.00" departLane="best" departPos="random" departSpeed="max">
        <route edges="1Ei 3Ni 3Eo"/>
    </vehicle>
    <vehicle id="130" depart="69.00" departLane="best" departPos="random" departSpeed="max">
        <route edges="0Ni 1Wi 1Eo"/>
    </vehicle>
    <vehicle id="131" depart="69.00" departLane="best" departPos="random" departSpeed="max">
        <route edges="3Si 2Ei 2So"/>
    </vehicle>
    <vehicle id="132" depart="69.00" departLane="best" departPos="random" departSpeed="max">
        <route edges="3Ei 3So"/>
    </vehicle>
    <vehicle id="133" depart="70.00" departLane="best" departPos="random" departSpeed="max">
        <route edges="1Wi 3Ni 2Ei 2So"/>
    </vehicle>
    <vehicle id="134" depart="70.00" departLane="best" departPos="random" departSpeed="max">
        <route edges="1Ni 0Ei 0No"/>
    </vehicle>
    <vehicle id="135" depart="70.00" departLane="best" departPos="random" departSpeed="max">
        <route edges="2Si 3Wi 3So"/>
    </vehicle>
    <vehicle id="136" depart="70.00" departLane="best" departPos="random" departSpeed="max">
        <route edges="2Si 2Wo"/>
    </vehicle>
    <vehicle id="137" depart="70.00" departLane="best" departPos="random" departSpeed="max">
        <route edges="1Ei 0Ei 0Wo"/>
    </vehicle>
    <vehicle id="138" depart="71.00" departLane="best" departPos="random" departSpeed="max">
        <route edges="0Ni 1Wi 1Eo"/>
    </vehicle>
    <vehicle id="139" depart="71.00" departLane="best" departPos="random" departSpeed="max">
        <route edges="0Ni 2Ni 3Wi 3So"/>
    </vehicle>
    <vehicle id="140" depart="73.00" departLane="best" departPos="random" departSpeed="max">
        <route edges="2Wi 3Wi 3Eo"/>
    </vehicle>
    <vehicle id="141" depart="75.00" departLane="best" departPos="random" departSpeed="max">
        <route edges="3Si 3Eo"/>
    </vehicle>
    <vehicle id="142" depart="75.00" departLane="best" departPos="random" departSpeed="max">
        <route edges="1Ni 3Ni 3Eo"/>
    </vehicle>
    <vehicle id="143" depart="77.00" departLane="best" departPos="random" departSpeed="max">
        <route edges="1Ei 0Ei 2Ni 2Wo"/>
    </vehicle>
    <vehicle id="144" depart="78.00" departLane="best" departPos="random" departSpeed="max">
        <route edges="2Wi 3Wi 1Si 1No"/>
    </vehicle>
    <vehicle id="145" depart="78.00" departLane="best" departPos="random" departSpeed="max">
        <route edges="2Si 0Si 1Wi 1Eo"/>
    </vehicle>
    <vehicle id="146" depart="79.00" departLane="best" departPos="random" departSpeed="max">
        <route edges="2Si 3Wi 3So"/>
    </vehicle>
    <vehicle id="147" depart="80.00" departLane="best" departPos="random" departSpeed="max">
        <route edges="0Wi 1Wi 3Ni 3So"/>
    </vehicle>
    <vehicle id="148" depart="80.00" departLane="best" departPos="random" departSpeed="max">
        <route edges="1Ni 3Ni 2Ei 0Si 1Wi 1No"/>
    </vehicle>
    <vehicle id="149" depart="81.00" departLane="best" departPos="random" departSpeed="max">
        <route edges="3Si 1Si 1Eo"/>
    </vehicle>
    <vehicle id="150" depart="81.00" departLane="best" departPos="random" departSpeed="max">
        <route edges="2Ei 0Si 1Wi 3Ni 3Eo"/>
    </vehicle>
    <vehicle id="151" depart="82.00" departLane="best" departPos="random" departSpeed="max">
        <route edges="3Ei 2Ei 0Si 1Wi 3Ni 3Eo"/>
    </vehicle>
    <vehicle id="152" depart="82.00" departLane="best" departPos="random" departSpeed="max">
        <route edges="1Ni 0Ei 0Wo"/>
    </vehicle>
    <vehicle id="153" depart="83.00" departLane="best" departPos="random" departSpeed="max">
        <route edges="3Si 1Si 1Eo"/>
    </vehicle>
    <vehicle id="154" depart="83.00" departLane="best" departPos="random" departSpeed="max">
        <route edges="0Ni 0Wo"/>
    </vehicle>
    <vehicle id="155" depart="84.00" departLane="best" departPos="random" departSpeed="max">
        <route edges="3Si 2Ei 0Si 1Wi 3Ni 3So"/>
    </vehicle>
    <vehicle id="156" depart="84.00" departLane="best" departPos="random" departSpeed="max">
        <route edges="1Ni 0Ei 2Ni 2So"/>
    </vehicle>
    <vehicle id="157" depart="87.00" departLane="best" departPos="random" departSpeed="max">
        <route edges="1Ni 0Ei 0Wo"/>
    </vehicle>
    <vehicle id="158" depart="88.00" departLane="best" departPos="random" departSpeed="max">
        <route edges="0Ni 2Ni 3Wi 3So"/>
    </vehicle>
    <vehicle id="159" depart="91.00" departLane="best" departPos="random" departSpeed="max">
        <route edges="0Wi 1Wi 3Ni 3So"/>
    </vehicle>
    <vehicle id="160" depart="91.00" departLane="best" departPos="random" departSpeed="max">
        <route edges="2Si 0Si 1Wi 1Eo"/>
    </vehicle>
    <vehicle id="161" depart="91.00" departLane="best" departPos="random" departSpeed="max">
        <route edges="1Ni 0Ei 0Wo"/>
    </vehicle>
    <vehicle id="162" depart="92.00" departLane="best" departPos="random" departSpeed="max">
        <route edges="2Wi 3Wi 3Eo"/>
    </vehicle>
    <vehicle id="163" depart="92.00" departLane="best" departPos="random" departSpeed="max">
        <route edges="0Ni 1Wi 1Eo"/>
    </vehicle>
    <vehicle id="164" depart="93.00" departLane="best" departPos="random" departSpeed="max">
        <route edges="0Ni 2Ni 3Wi 3Eo"/>
    </vehicle>
    <vehicle id="165" depart="93.00" departLane="best" departPos="random" departSpeed="max">
        <route edges="0Wi 1Wi 1No"/>
    </vehicle>
    <vehicle id="166" depart="93.00" departLane="best" departPos="random" departSpeed="max">
        <route edges="2Wi 0Si 1Wi 3Ni 2Ei 2Wo"/>
    </vehicle>
    <vehicle id="167" depart="93.00" departLane="best" departPos="random" departSpeed="max">
        <route edges="3Ei 3So"/>
    </vehicle>
    <vehicle id="168" depart="94.00" departLane="best" departPos="random" departSpeed="max">
        <route edges="2Si 0Si 1Wi 1No"/>
    </vehicle>
    <vehicle id="169" depart="95.00" departLane="best" departPos="random" departSpeed="max">
        <route edges="1Ei 3Ni 3Eo"/>
    </vehicle>
    <vehicle id="170" depart="95.00" departLane="best" departPos="random" departSpeed="max">
        <route edges="1Ni 3Ni 3Eo"/>
    </vehicle>
    <vehicle id="171" depart="95.00" departLane="best" departPos="random" departSpeed="max">
        <route edges="2Wi 3Wi 1Si 1No"/>
    </vehicle>
    <vehicle id="172" depart="95.00" departLane="best" departPos="random" departSpeed="max">
        <route edges="2Wi 2So"/>
    </vehicle>
    <vehicle id="173" depart="96.00" departLane="best" departPos="random" departSpeed="max">
        <route edges="2Si 0Si 1Wi 3Ni 2Ei 2So"/>
    </vehicle>
    <vehicle id="174" depart="96.00" departLane="best" departPos="random" departSpeed="max">
        <route edges="0Ni 1Wi 3Ni 2Ei 0Si 0No"/>
    </vehicle>
    <vehicle id="175" depart="96.00" departLane="best" departPos="random" departSpeed="max">
        <route edges="1Ni 3Ni 3Eo"/>
    </vehicle>
    <vehicle id="176" depart="96.00" departLane="best" departPos="random" departSpeed="max">
        <route edges="2Wi 2So"/>
    </vehicle>
    <vehicle id="177" depart="97.00" departLane="best" departPos="random" departSpeed="max">
        <route edges="1Ni 0Ei 2Ni 2So"/>
    </vehicle>
    <vehicle id="178" depart="97.00" departLane="best" departPos="random" departSpeed="max">
        <route edges="3Ei 2Ei 0Si 1Wi 3Ni 3Eo"/>
    </vehicle>
    <vehicle id="179" depart="97.00" departLane="best" departPos="random" departSpeed="max">
        <route edges="1Ni 0Ei 0Wo"/>
    </vehicle>
    <vehicle id="181" depart="98.00" departLane="best" departPos="random" departSpeed="max">
        <route edges="0Wi 1Wi 3Ni 2Ei 0Si 0Wo"/>
    </vehicle>
    <vehicle id="182" depart="99.00" departLane="best" departPos="random" departSpeed="max">
        <route edges="3Ei 2Ei 2So"/>
    </vehicle>
    <vehicle id="183" depart="100.00" departLane="best" departPos="random" departSpeed="max">
        <route edges="2Si 3Wi 3So"/>
    </vehicle>
    <vehicle id="184" depart="100.00" departLane="best" departPos="random" departSpeed="max">
        <route edges="2Si 0Si 0Wo"/>
    </vehicle>
    <vehicle id="185" depart="100.00" departLane="best" departPos="random" departSpeed="max">
        <route edges="1Ni 0Ei 0Wo"/>
    </vehicle>
    <vehicle id="186" depart="101.00" departLane="best" departPos="random" departSpeed="max">
        <route edges="2Si 0Si 1Wi 3Ni 2Ei 2So"/>
    </vehicle>
    <vehicle id="187" depart="101.00" departLane="best" departPos="random" departSpeed="max">
        <route edges="2Si 0Si 1Wi 3Ni 2Ei 2So"/>
    </vehicle>
    <vehicle id="188" depart="101.00" departLane="best" departPos="random" departSpeed="max">
        <route edges="0Wi 2Ni 3Wi 3Eo"/>
    </vehicle>
    <vehicle id="189" depart="101.00" departLane="best" departPos="random" departSpeed="max">
        <route edges="1Ei 3Ni 3Eo"/>
    </vehicle>
    <vehicle id="190" depart="102.00" departLane="best" departPos="random" departSpeed="max">
        <route edges="2Si 2Wo"/>
    </vehicle>
    <vehicle id="191" depart="102.00" departLane="best" departPos="random" departSpeed="max">
        <route edges="1Ni 3Ni 3So"/>
    </vehicle>
    <vehicle id="192" depart="102.00" departLane="best" departPos="random" departSpeed="max">
        <route edges="2Wi 3Wi 3So"/>
    </vehicle>
    <vehicle id="193" depart="103.00" departLane="best" departPos="random" departSpeed="max">
        <route edges="3Ei 2Ei 0Si 0Wo"/>
    </vehicle>
    <vehicle id="194" depart="105.00" departLane="best" departPos="random" departSpeed="max">
        <route edges="2Si 0Si 1Wi 1No"/>
    </vehicle>
    <vehicle id="195" depart="105.00" departLane="best" departPos="random" departSpeed="max">
        <route edges="1Ni 3Ni 3So"/>
    </vehicle>
    <vehicle id="196" depart="105.00" departLane="best" departPos="random" departSpeed="max">
        <route edges="0Wi 2Ni 2Wo"/>
    </vehicle>
    <vehicle id="197" depart="105.00" departLane="best" departPos="random" departSpeed="max">
        <route edges="0Ni 2Ni 3Wi 3Eo"/>
    </vehicle>
    <vehicle id="198" depart="107.00" departLane="best" departPos="random" departSpeed="max">
        <route edges="2Si 0Si 1Wi 3Ni 2Ei 2So"/>
    </vehicle>
    <vehicle id="199" depart="107.00" departLane="best" departPos="random" departSpeed="max">
        <route edges="1Ei 0Ei 0No"/>
    </vehicle>
    <vehicle id="200" depart="107.00" departLane="best" departPos="random" departSpeed="max">
        <route edges="1Ei 3Ni 2Ei 0Si 1Wi 1Eo"/>
    </vehicle>
    <vehicle id="201" depart="108.00" departLane="best" departPos="random" departSpeed="max">
        <route edges="0Wi 2Ni 3Wi 3Eo"/>
    </vehicle>
    <vehicle id="202" depart="109.00" departLane="best" departPos="random" departSpeed="max">
        <route edges="3Ei 2Ei 2So"/>
    </vehicle>
    <vehicle id="203" depart="109.00" departLane="best" departPos="random" departSpeed="max">
        <route edges="2Si 3Wi 3Eo"/>
    </vehicle>