<?xml version='1.0' encoding='utf-8'?>
<routes xmlns:xsi="http://www.w3.org/2001/XMLSchema-instance" xsi:noNamespaceSchemaLocation="http://sumo.dlr.de/xsd/routes_file.xsd">
    <vehicle id="0" depart="0.00" departLane="best" departPos="random" departSpeed="max">
        <route edges="3Si 2Ei 2Wo" />
    </vehicle>
    <vehicle id="2" depart="0.00" departLane="best" departPos="random" departSpeed="max">
        <route edges="0Ni 1Wi 3Ni 2Ei 0Si 0No" />
    </vehicle>
    <vehicle id="3" depart="0.00" departLane="best" departPos="random" departSpeed="max">
        <route edges="1Ni 0Ei 0No" />
    </vehicle>
    <vehicle id="5" depart="1.00" departLane="best" departPos="random" departSpeed="max">
        <route edges="2Si 0Si 0Wo" />
    </vehicle>
    <vehicle id="6" depart="2.00" departLane="best" departPos="random" departSpeed="max">
        <route edges="3Si 1Si 0Ei 0No" />
    </vehicle>
    <vehicle id="8" depart="5.00" departLane="best" departPos="random" departSpeed="max">
        <route edges="3Si 1Si 1No" />
    </vehicle>
    <vehicle id="9" depart="6.00" departLane="best" departPos="random" departSpeed="max">
        <route edges="3Si 2Ei" />
    </vehicle>
    <vehicle id="10" depart="6.00" departLane="best" departPos="random" departSpeed="max">
        <route edges="1Ni 3Ni 2Ei 0Si 1Wi 1No" />
    </vehicle>
    <vehicle id="11" depart="6.00" departLane="best" departPos="random" departSpeed="max">
        <route edges="2Si 2Wo" />
    </vehicle>
    <vehicle id="12" depart="7.00" departLane="best" departPos="random" departSpeed="max">
        <route edges="0Ni 2Ni 2Wo" />
    </vehicle>
    <vehicle id="15" depart="8.00" departLane="best" departPos="random" departSpeed="max">
        <route edges="3Si 1Si 0Ei 0Wo" />
    </vehicle>
    <vehicle id="16" depart="8.00" departLane="best" departPos="random" departSpeed="max">
        <route edges="3Si 2Ei 2Wo" />
    </vehicle>
    <vehicle id="18" depart="11.00" departLane="best" departPos="random" departSpeed="max">
        <route edges="3Si 1Si 1No" />
    </vehicle>
    <vehicle id="19" depart="12.00" departLane="best" departPos="random" departSpeed="max">
        <route edges="2Si 0Si 1Wi 3Ni 2Ei 2So" />
    </vehicle>
    <vehicle id="20" depart="12.00" departLane="best" departPos="random" departSpeed="max">
        <route edges="1Ni 3Ni 2Ei 2Wo" />
    </vehicle>
    <vehicle id="21" depart="12.00" departLane="best" departPos="random" departSpeed="max">
        <route edges="3Si 1Si 1Eo" />
    </vehicle>
    <vehicle id="22" depart="14.00" departLane="best" departPos="random" departSpeed="max">
        <route edges="2Si 0Si 0No" />
    </vehicle>
    <vehicle id="26" depart="15.00" departLane="best" departPos="random" departSpeed="max">
        <route edges="0Ni 1Wi 1Eo" />
    </vehicle>
    <vehicle id="28" depart="16.00" departLane="best" departPos="random" departSpeed="max">
        <route edges="2Si 0Si 1Wi 1Eo" />
    </vehicle>
    <vehicle id="29" depart="16.00" departLane="best" departPos="random" departSpeed="max">
        <route edges="3Si 2Ei 0Si 1Wi 3Ni 3So" />
    </vehicle>
    <vehicle id="30" depart="16.00" departLane="best" departPos="random" departSpeed="max">
        <route edges="2Si 0Si 1Wi 3Ni 2Ei 2So" />
    </vehicle>
    <vehicle id="31" depart="16.00" departLane="best" departPos="random" departSpeed="max">
        <route edges="0Ni 0Wo" />
    </vehicle>
    <vehicle id="32" depart="17.00" departLane="best" departPos="random" departSpeed="max">
        <route edges="3Si 2Ei 0Si 1Wi 3Ni 3So" />
    </vehicle>
    <vehicle id="33" depart="17.00" departLane="best" departPos="random" departSpeed="max">
        <route edges="3Si 3Eo" />
    </vehicle>
    <vehicle id="35" depart="17.00" departLane="best" departPos="random" departSpeed="max">
        <route edges="0Ni 1Wi 1No" />
    </vehicle>
    <vehicle id="39" depart="19.00" departLane="best" departPos="random" departSpeed="max">
        <route edges="0Si 0Wo" />
    </vehicle>
    <vehicle id="40" depart="19.00" departLane="best" departPos="random" departSpeed="max">
        <route edges="1Ni 3Ni 2Ei 2Wo" />
    </vehicle>
    <vehicle id="44" depart="20.00" departLane="best" departPos="random" departSpeed="max">
        <route edges="1Ni 3Ni 2Ei 2Wo" />
    </vehicle>
    <vehicle id="48" depart="23.00" departLane="best" departPos="random" departSpeed="max">
        <route edges="2Si 0Si 1Wi 1No" />
    </vehicle>
    <vehicle id="49" depart="23.00" departLane="best" departPos="random" departSpeed="max">
        <route edges="1Ni 3Ni 2Ei 2Wo" />
    </vehicle>
    <vehicle id="50" depart="23.00" departLane="best" departPos="random" departSpeed="max">
        <route edges="0Ni 1Wi 1Eo" />
    </vehicle>
    <vehicle id="52" depart="25.00" departLane="best" departPos="random" departSpeed="max">
        <route edges="3Si 3Eo" />
    </vehicle>
    <vehicle id="54" depart="26.00" departLane="best" departPos="random" departSpeed="max">
        <route edges="2Si 3Wi 3So" />
    </vehicle>
    <vehicle id="55" depart="27.00" departLane="best" departPos="random" departSpeed="max">
        <route edges="1Ni 3Ni 3Eo" />
    </vehicle>
    <vehicle id="58" depart="28.00" departLane="best" departPos="random" departSpeed="max">
        <route edges="0Ni 2Ni 3Wi 3Eo" />
    </vehicle>
    <vehicle id="59" depart="29.00" departLane="best" departPos="random" departSpeed="max">
        <route edges="1Ni 3Ni 3So" />
    </vehicle>
    <vehicle id="62" depart="30.00" departLane="best" departPos="random" departSpeed="max">
        <route edges="1Ni 0Ei 2Ni 2So" />
    </vehicle>
    <vehicle id="64" depart="32.00" departLane="best" departPos="random" departSpeed="max">
        <route edges="3Si 3Eo" />
    </vehicle>
    <vehicle id="66" depart="33.00" departLane="best" departPos="random" departSpeed="max">
        <route edges="2Si 0Si 0Wo" />
    </vehicle>
    <vehicle id="73" depart="36.00" departLane="best" departPos="random" departSpeed="max">
        <route edges="1Ni 3Ni 2Ei 0Si 1Wi 1No" />
    </vehicle>
    <vehicle id="75" depart="37.00" departLane="best" departPos="random" departSpeed="max">
        <route edges="0Ni 2Ni 3Wi 3Eo" />
    </vehicle>
    <vehicle id="76" depart="37.00" departLane="best" departPos="random" departSpeed="max">
        <route edges="1Ni 3Ni 3So" />
    </vehicle>
    <vehicle id="79" depart="38.00" departLane="best" departPos="random" departSpeed="max">
        <route edges="0Si 1Wi 3Ni 3Eo" />
    </vehicle>
    <vehicle id="81" depart="39.00" departLane="best" departPos="random" departSpeed="max">
        <route edges="1Ni 0Ei 2Ni" />
    </vehicle>
    <vehicle id="82" depart="39.00" departLane="best" departPos="random" departSpeed="max">
        <route edges="3Si 1Si 0Ei 0No" />
    </vehicle>
    <vehicle id="86" depart="40.00" departLane="best" departPos="random" departSpeed="max">
        <route edges="1Ni 3Ni 3So" />
    </vehicle>
    <vehicle id="89" depart="42.00" departLane="best" departPos="random" departSpeed="max">
        <route edges="1Ni 0Ei 2Ni 2So" />
    </vehicle>
    <vehicle id="90" depart="43.00" departLane="best" departPos="random" departSpeed="max">
        <route edges="0Si 1Wi 1Eo" />
    </vehicle>
    <vehicle id="93" depart="44.00" departLane="best" departPos="random" departSpeed="max">
        <route edges="1Ni 3Ni 3Eo" />
    </vehicle>
    <vehicle id="94" depart="45.00" departLane="best" departPos="random" departSpeed="max">
        <route edges="2Si" />
    </vehicle>
    <vehicle id="95" depart="46.00" departLane="best" departPos="random" departSpeed="max">
        <route edges="1Ni 0Ei 0No" />
    </vehicle>
    <vehicle id="99" depart="49.00" departLane="best" departPos="random" departSpeed="max">
        <route edges="2Si 3Wi 3So" />
    </vehicle>
    <vehicle id="102" depart="51.00" departLane="best" departPos="random" departSpeed="max">
        <route edges="3Si 2Ei 2Wo" />
    </vehicle>
    <vehicle id="103" depart="51.00" departLane="best" departPos="random" departSpeed="max">
        <route edges="2Si 0Si 0Wo" />
    </vehicle>
    <vehicle id="104" depart="52.00" departLane="best" departPos="random" departSpeed="max">
        <route edges="0Ni 2Ni 3Wi 3Eo" />
    </vehicle>
    <vehicle id="106" depart="52.00" departLane="best" departPos="random" departSpeed="max">
        <route edges="3Si 1Si 1No" />
    </vehicle>
    <vehicle id="107" depart="53.00" departLane="best" departPos="random" departSpeed="max">
        <route edges="2Si 3Wi 3Eo" />
    </vehicle>
    <vehicle id="109" depart="55.00" departLane="best" departPos="random" departSpeed="max">
        <route edges="1Ni 3Ni 2Ei 0Si 1Wi 1No" />
    </vehicle>
    <vehicle id="110" depart="55.00" departLane="best" departPos="random" departSpeed="max">
        <route edges="0Ni 1Wi 1Eo" />
    </vehicle>
    <vehicle id="111" depart="55.00" departLane="best" departPos="random" departSpeed="max">
        <route edges="1Ni 0Ei 0Wo" />
    </vehicle>
    <vehicle id="112" depart="55.00" departLane="best" departPos="random" departSpeed="max">
        <route edges="2Si 0Si 1Wi 1No" />
    </vehicle>
    <vehicle id="114" depart="55.00" departLane="best" departPos="random" departSpeed="max">
        <route edges="1Ni 3Ni 3So" />
    </vehicle>
    <vehicle id="117" depart="60.00" departLane="best" departPos="random" departSpeed="max">
        <route edges="0Ni 2Ni 3Wi 3So" />
    </vehicle>
    <vehicle id="119" depart="61.00" departLane="best" departPos="random" departSpeed="max">
        <route edges="2Si 3Wi 3So" />
    </vehicle>
    <vehicle id="122" depart="64.00" departLane="best" departPos="random" departSpeed="max">
        <route edges="1Ni 3Ni 3Eo" />
    </vehicle>
    <vehicle id="123" depart="65.00" departLane="best" departPos="random" departSpeed="max">
        <route edges="1Ni 3Ni 2Ei 2Wo" />
    </vehicle>
    <vehicle id="124" depart="65.00" departLane="best" departPos="random" departSpeed="max">
        <route edges="2Si 3Wi 3So" />
    </vehicle>
    <vehicle id="125" depart="65.00" departLane="best" departPos="random" departSpeed="max">
        <route edges="0Ni 1Wi 1No" />
    </vehicle>
    <vehicle id="127" depart="68.00" departLane="best" departPos="random" departSpeed="max">
        <route edges="0Ni 0Wo" />
    </vehicle>
    <vehicle id="128" depart="68.00" departLane="best" departPos="random" departSpeed="max">
        <route edges="3Si 2Ei 2So" />
    </vehicle>
    <vehicle id="130" depart="69.00" departLane="best" departPos="random" departSpeed="max">
        <route edges="0Ni 1Wi 1Eo" />
    </vehicle>
    <vehicle id="131" depart="69.00" departLane="best" departPos="random" departSpeed="max">
        <route edges="3Si 2Ei 2So" />
    </vehicle>
    <vehicle id="134" depart="70.00" departLane="best" departPos="random" departSpeed="max">
        <route edges="1Ni 0Ei 0No" />
    </vehicle>
    <vehicle id="135" depart="70.00" departLane="best" departPos="random" departSpeed="max">
        <route edges="2Si 3Wi 3So" />
    </vehicle>
    <vehicle id="136" depart="70.00" departLane="best" departPos="random" departSpeed="max">
        <route edges="2Si 2Wo" />
    </vehicle>
    <vehicle id="138" depart="71.00" departLane="best" departPos="random" departSpeed="max">
        <route edges="0Ni 1Wi 1Eo" />
    </vehicle>
    <vehicle id="139" depart="71.00" departLane="best" departPos="random" departSpeed="max">
        <route edges="0Ni 2Ni 3Wi 3So" />
    </vehicle>
    <vehicle id="141" depart="75.00" departLane="best" departPos="random" departSpeed="max">
        <route edges="3Si 3Eo" />
    </vehicle>
    <vehicle id="142" depart="75.00" departLane="best" departPos="random" departSpeed="max">
        <route edges="1Ni 3Ni 3Eo" />
    </vehicle>
    <vehicle id="145" depart="78.00" departLane="best" departPos="random" departSpeed="max">
        <route edges="2Si 0Si 1Wi 1Eo" />
    </vehicle>
    <vehicle id="146" depart="79.00" departLane="best" departPos="random" departSpeed="max">
        <route edges="2Si 3Wi 3So" />
    </vehicle>
    <vehicle id="148" depart="80.00" departLane="best" departPos="random" departSpeed="max">
        <route edges="1Ni 3Ni 2Ei 0Si 1Wi 1No" />
    </vehicle>
    <vehicle id="149" depart="81.00" departLane="best" departPos="random" departSpeed="max">
        <route edges="3Si 1Si 1Eo" />
    </vehicle>
    <vehicle id="152" depart="82.00" departLane="best" departPos="random" departSpeed="max">
        <route edges="1Ni 0Ei 0Wo" />
    </vehicle>
    <vehicle id="153" depart="83.00" departLane="best" departPos="random" departSpeed="max">
        <route edges="3Si 1Si 1Eo" />
    </vehicle>
    <vehicle id="154" depart="83.00" departLane="best" departPos="random" departSpeed="max">
        <route edges="0Ni 0Wo" />
    </vehicle>
    <vehicle id="155" depart="84.00" departLane="best" departPos="random" departSpeed="max">
        <route edges="3Si 2Ei 0Si 1Wi 3Ni 3So" />
    </vehicle>
    <vehicle id="156" depart="84.00" departLane="best" departPos="random" departSpeed="max">
        <route edges="1Ni 0Ei 2Ni 2So" />
    </vehicle>
    <vehicle id="157" depart="87.00" departLane="best" departPos="random" departSpeed="max">
        <route edges="1Ni 0Ei 0Wo" />
    </vehicle>
    <vehicle id="158" depart="88.00" departLane="best" departPos="random" departSpeed="max">
        <route edges="0Ni 2Ni 3Wi 3So" />
    </vehicle>
    <vehicle id="160" depart="91.00" departLane="best" departPos="random" departSpeed="max">
        <route edges="2Si 0Si 1Wi 1Eo" />
    </vehicle>
    <vehicle id="161" depart="91.00" departLane="best" departPos="random" departSpeed="max">
        <route edges="1Ni 0Ei 0Wo" />
    </vehicle>
    <vehicle id="163" depart="92.00" departLane="best" departPos="random" departSpeed="max">
        <route edges="0Ni 1Wi 1Eo" />
    </vehicle>
    <vehicle id="164" depart="93.00" departLane="best" departPos="random" departSpeed="max">
        <route edges="0Ni 2Ni 3Wi 3Eo" />
    </vehicle>
    <vehicle id="168" depart="94.00" departLane="best" departPos="random" departSpeed="max">
        <route edges="2Si 0Si 1Wi 1No" />
    </vehicle>
    <vehicle id="170" depart="95.00" departLane="best" departPos="random" departSpeed="max">
        <route edges="1Ni 3Ni 3Eo" />
    </vehicle>
    <vehicle id="173" depart="96.00" departLane="best" departPos="random" departSpeed="max">
        <route edges="2Si 0Si 1Wi 3Ni 2Ei 2So" />
    </vehicle>
    <vehicle id="174" depart="96.00" departLane="best" departPos="random" departSpeed="max">
        <route edges="0Ni 1Wi 3Ni 2Ei 0Si 0No" />
    </vehicle>
    <vehicle id="175" depart="96.00" departLane="best" departPos="random" departSpeed="max">
        <route edges="1Ni 3Ni 3Eo" />
    </vehicle>
    <vehicle id="177" depart="97.00" departLane="best" departPos="random" departSpeed="max">
        <route edges="1Ni 0Ei 2Ni 2So" />
    </vehicle>
    <vehicle id="179" depart="97.00" departLane="best" departPos="random" departSpeed="max">
        <route edges="1Ni 0Ei 0Wo" />
    </vehicle>
    <vehicle id="183" depart="100.00" departLane="best" departPos="random" departSpeed="max">
        <route edges="2Si 3Wi 3So" />
    </vehicle>
    <vehicle id="184" depart="100.00" departLane="best" departPos="random" departSpeed="max">
        <route edges="2Si 0Si 0Wo" />
    </vehicle>
    <vehicle id="185" depart="100.00" departLane="best" departPos="random" departSpeed="max">
        <route edges="1Ni 0Ei 0Wo" />
    </vehicle>
    <vehicle id="186" depart="101.00" departLane="best" departPos="random" departSpeed="max">
        <route edges="2Si 0Si 1Wi 3Ni 2Ei 2So" />
    </vehicle>
    <vehicle id="187" depart="101.00" departLane="best" departPos="random" departSpeed="max">
        <route edges="2Si 0Si 1Wi 3Ni 2Ei 2So" />
    </vehicle>
    <vehicle id="190" depart="102.00" departLane="best" departPos="random" departSpeed="max">
        <route edges="2Si 2Wo" />
    </vehicle>
    <vehicle id="191" depart="102.00" departLane="best" departPos="random" departSpeed="max">
        <route edges="1Ni 3Ni 3So" />
    </vehicle>
    <vehicle id="194" depart="105.00" departLane="best" departPos="random" departSpeed="max">
        <route edges="2Si 0Si 1Wi 1No" />
    </vehicle>
    <vehicle id="195" depart="105.00" departLane="best" departPos="random" departSpeed="max">
        <route edges="1Ni 3Ni 3So" />
    </vehicle>
    <vehicle id="197" depart="105.00" departLane="best" departPos="random" departSpeed="max">
        <route edges="0Ni 2Ni 3Wi 3Eo" />
    </vehicle>
    <vehicle id="198" depart="107.00" departLane="best" departPos="random" departSpeed="max">
        <route edges="2Si 0Si 1Wi 3Ni 2Ei 2So" />
    </vehicle>
    <vehicle id="203" depart="109.00" departLane="best" departPos="random" departSpeed="max">
        <route edges="2Si 3Wi 3Eo" />
    </vehicle>
    <vehicle id="206" depart="112.00" departLane="best" departPos="random" departSpeed="max">
        <route edges="2Si 0Si 1Wi 1Eo" />
    </vehicle>
    <vehicle id="208" depart="113.00" departLane="best" departPos="random" departSpeed="max">
        <route edges="2Si 0Si 1Wi 3Ni 2Ei 2So" />
    </vehicle>
    <vehicle id="210" depart="115.00" departLane="best" departPos="random" departSpeed="max">
        <route edges="3Si 2Ei 2So" />
    </vehicle>
    <vehicle id="211" depart="115.00" departLane="best" departPos="random" departSpeed="max">
        <route edges="0Ni 0Wo" />
    </vehicle>
    <vehicle id="215" depart="116.00" departLane="best" departPos="random" departSpeed="max">
        <route edges="1Ni 1Eo" />
    </vehicle>
    <vehicle id="216" depart="117.00" departLane="best" departPos="random" departSpeed="max">
        <route edges="0Ni 1Wi 1No" />
    </vehicle>
    <vehicle id="217" depart="118.00" departLane="best" departPos="random" departSpeed="max">
        <route edges="2Si 3Wi 3So" />
    </vehicle>
    <vehicle id="218" depart="119.00" departLane="best" departPos="random" departSpeed="max">
        <route edges="2Si 2Wo" />
    </vehicle>
    <vehicle id="219" depart="119.00" departLane="best" departPos="random" departSpeed="max">
        <route edges="2Si 0Si 0Wo" />
    </vehicle>
    <vehicle id="220" depart="119.00" departLane="best" departPos="random" departSpeed="max">
        <route edges="2Si 0Si 0No" />
    </vehicle>
    <vehicle id="222" depart="120.00" departLane="best" departPos="random" departSpeed="max">
        <route edges="3Si 2Ei 2So" />
    </vehicle>
    <vehicle id="224" depart="121.00" departLane="best" departPos="random" departSpeed="max">
        <route edges="0Ni 2Ni 3Wi 3Eo" />
    </vehicle>
    <vehicle id="225" depart="122.00" departLane="best" departPos="random" departSpeed="max">
        <route edges="1Ni 0Ei 2Ni 2So" />
    </vehicle>
    <vehicle id="228" depart="123.00" departLane="best" departPos="random" departSpeed="max">
        <route edges="3Si 2Ei 2So" />
    </vehicle>
    <vehicle id="232" depart="123.00" departLane="best" departPos="random" departSpeed="max">
        <route edges="2Si 0Si 0Wo" />
    </vehicle>
    <vehicle id="235" depart="126.00" departLane="best" departPos="random" departSpeed="max">
        <route edges="1Ni 3Ni 2Ei 2Wo" />
    </vehicle>
    <vehicle id="236" depart="126.00" departLane="best" departPos="random" departSpeed="max">
        <route edges="1Ni 3Ni" />
    </vehicle>
    <vehicle id="238" depart="126.00" departLane="best" departPos="random" departSpeed="max">
        <route edges="0Ni 1Wi 1No" />
    </vehicle>
    <vehicle id="239" depart="127.00" departLane="best" departPos="random" departSpeed="max">
        <route edges="0Ni 1Wi 1No" />
    </vehicle>
    <vehicle id="242" depart="128.00" departLane="best" departPos="random" departSpeed="max">
        <route edges="3Si 1Si 0Ei 0No" />
    </vehicle>
    <vehicle id="243" depart="130.00" departLane="best" departPos="random" departSpeed="max">
        <route edges="3Si 2Ei 0Si 1Wi 3Ni 3So" />
    </vehicle>
    <vehicle id="244" depart="131.00" departLane="best" departPos="random" departSpeed="max">
        <route edges="1Ni 0Ei 2Ni 2So" />
    </vehicle>
    <vehicle id="247" depart="135.00" departLane="best" departPos="random" departSpeed="max">
        <route edges="2Si 3Wi 3So" />
    </vehicle>
    <vehicle id="248" depart="135.00" departLane="best" departPos="random" departSpeed="max">
        <route edges="1Ni 1Eo" />
    </vehicle>
    <vehicle id="249" depart="136.00" departLane="best" departPos="random" departSpeed="max">
        <route edges="2Si 0Si 1Wi 1No" />
    </vehicle>
    <vehicle id="250" depart="139.00" departLane="best" departPos="random" departSpeed="max">
        <route edges="0Ni 2Ni 3Wi 3So" />
    </vehicle>
    <vehicle id="251" depart="139.00" departLane="best" departPos="random" departSpeed="max">
        <route edges="2Si 3Wi 3So" />
    </vehicle>
    <vehicle id="252" depart="139.00" departLane="best" departPos="random" departSpeed="max">
        <route edges="3Si 2Ei 2So" />
    </vehicle>
    <vehicle id="253" depart="140.00" departLane="best" departPos="random" departSpeed="max">
        <route edges="2Si 0Si 1Wi 3Ni 2Ei 2So" />
    </vehicle>
    <vehicle id="255" depart="141.00" departLane="best" departPos="random" departSpeed="max">
        <route edges="2Si 0Si 0No" />
    </vehicle>
    <vehicle id="261" depart="144.00" departLane="best" departPos="random" departSpeed="max">
        <route edges="0Ni 2Ni 2So" />
    </vehicle>
    <vehicle id="262" depart="144.00" departLane="best" departPos="random" departSpeed="max">
        <route edges="1Ni 0Ei 0Wo" />
    </vehicle>
    <vehicle id="264" depart="144.00" departLane="best" departPos="random" departSpeed="max">
        <route edges="0Ni 2Ni 3Wi 3Eo" />
    </vehicle>
    <vehicle id="265" depart="144.00" departLane="best" departPos="random" departSpeed="max">
        <route edges="0Ni 1Wi 1Eo" />
    </vehicle>
    <vehicle id="266" depart="146.00" departLane="best" departPos="random" departSpeed="max">
        <route edges="2Si 3Wi 3So" />
    </vehicle>
    <vehicle id="268" depart="147.00" departLane="best" departPos="random" departSpeed="max">
        <route edges="2Ni 3Wi 3Eo" />
    </vehicle>
    <vehicle id="270" depart="148.00" departLane="best" departPos="random" departSpeed="max">
        <route edges="1Ni 3Ni 2Ei 0Si 1Wi 1No" />
    </vehicle>
    <vehicle id="272" depart="150.00" departLane="best" departPos="random" departSpeed="max">
        <route edges="1Ni 0Ei 0Wo" />
    </vehicle>
    <vehicle id="273" depart="150.00" departLane="best" departPos="random" departSpeed="max">
        <route edges="0Ni 2Ni 2Wo" />
    </vehicle>
    <vehicle id="274" depart="150.00" departLane="best" departPos="random" departSpeed="max">
        <route edges="2Si 0Si 0Wo" />
    </vehicle>
    <vehicle id="276" depart="150.00" departLane="best" departPos="random" departSpeed="max">
        <route edges="2Si 0Si 1Wi 1No" />
    </vehicle>
    <vehicle id="277" depart="151.00" departLane="best" departPos="random" departSpeed="max">
        <route edges="3Si 2Ei 2So" />
    </vehicle>
    <vehicle id="278" depart="151.00" departLane="best" departPos="random" departSpeed="max">
        <route edges="1Ni 1Eo" />
    </vehicle>
    <vehicle id="279" depart="152.00" departLane="best" departPos="random" departSpeed="max">
        <route edges="1Ni 0Ei 2Ni 2So" />
    </vehicle>
    <vehicle id="280" depart="152.00" departLane="best" departPos="random" departSpeed="max">
        <route edges="3Si 2Ei 2Wo" />
    </vehicle>
    <vehicle id="282" depart="153.00" departLane="best" departPos="random" departSpeed="max">
        <route edges="0Ni 2Ni 2So" />
    </vehicle>
    <vehicle id="285" depart="153.00" departLane="best" departPos="random" departSpeed="max">
        <route edges="0Ni 1Wi 3Ni 2Ei 0Si 0No" />
    </vehicle>
    <vehicle id="288" depart="155.00" departLane="best" departPos="random" departSpeed="max">
        <route edges="2Si 0Si 0No" />
    </vehicle>
    <vehicle id="293" depart="158.00" departLane="best" departPos="random" departSpeed="max">
        <route edges="1Ni 3Ni 2Ei 2Wo" />
    </vehicle>
    <vehicle id="297" depart="160.00" departLane="best" departPos="random" departSpeed="max">
        <route edges="0Ni 1Wi 3Ni 2Ei 0Si 0No" />
    </vehicle>
    <vehicle id="298" depart="161.00" departLane="best" departPos="random" departSpeed="max">
        <route edges="1Ni 3Ni" />
    </vehicle>
    <vehicle id="301" depart="163.00" departLane="best" departPos="random" departSpeed="max">
        <route edges="2Si 3Wi 3So" />
    </vehicle>
    <vehicle id="303" depart="164.00" departLane="best" departPos="random" departSpeed="max">
        <route edges="3Si 1Si 1Eo" />
    </vehicle>
    <vehicle id="306" depart="164.00" departLane="best" departPos="random" departSpeed="max">
        <route edges="2Si 0Si 1Wi 1No" />
    </vehicle>
    <vehicle id="307" depart="165.00" departLane="best" departPos="random" departSpeed="max">
        <route edges="2Si 2Wo" />
    </vehicle>
    <vehicle id="308" depart="167.00" departLane="best" departPos="random" departSpeed="max">
        <route edges="1Ni 1Eo" />
    </vehicle>
    <vehicle id="314" depart="170.00" departLane="best" departPos="random" departSpeed="max">
        <route edges="2Si 0Si 0Wo" />
    </vehicle>
    <vehicle id="315" depart="171.00" departLane="best" departPos="random" departSpeed="max">
        <route edges="0Ni 1Wi 3Ni 2Ei 0Si 0No" />
    </vehicle>
    <vehicle id="316" depart="171.00" departLane="best" departPos="random" departSpeed="max">
        <route edges="2Si 0Si 1Wi 1No" />
    </vehicle>
    <vehicle id="318" depart="172.00" departLane="best" departPos="random" departSpeed="max">
        <route edges="1Ni 3Ni 3Eo" />
    </vehicle>
    <vehicle id="319" depart="172.00" departLane="best" departPos="random" departSpeed="max">
        <route edges="0Ni 1Wi 1Eo" />
    </vehicle>
    <vehicle id="320" depart="174.00" departLane="best" departPos="random" departSpeed="max">
        <route edges="0Ni 1Wi 1No" />
    </vehicle>
    <vehicle id="322" depart="174.00" departLane="best" departPos="random" departSpeed="max">
        <route edges="2Si 0Si 1Wi 3Ni 2Ei 2So" />
    </vehicle>
    <vehicle id="323" depart="175.00" departLane="best" departPos="random" departSpeed="max">
        <route edges="1Ni 0Ei 0No" />
    </vehicle>
    <vehicle id="326" depart="176.00" departLane="best" departPos="random" departSpeed="max">
        <route edges="2Si 0Si 1Wi 3Ni 2Ei 2So" />
    </vehicle>
    <vehicle id="328" depart="176.00" departLane="best" departPos="random" departSpeed="max">
        <route edges="1Ni 3Ni 2Ei 2Wo" />
    </vehicle>
    <vehicle id="329" depart="179.00" departLane="best" departPos="random" departSpeed="max">
        <route edges="1Ni 0Ei 0Wo" />
    </vehicle>
    <vehicle id="330" depart="179.00" departLane="best" departPos="random" departSpeed="max">
        <route edges="1Ni 0Ei 0Wo" />
    </vehicle>
    <vehicle id="331" depart="179.00" departLane="best" departPos="random" departSpeed="max">
        <route edges="3Si 2Ei 2So" />
    </vehicle>
    <vehicle id="333" depart="180.00" departLane="best" departPos="random" departSpeed="max">
        <route edges="1Ni 3Ni 3Eo" />
    </vehicle>
    <vehicle id="334" depart="180.00" departLane="best" departPos="random" departSpeed="max">
        <route edges="0Ni 2Ni 3Wi 3Eo" />
    </vehicle>
    <vehicle id="335" depart="181.00" departLane="best" departPos="random" departSpeed="max">
        <route edges="3Si 2Ei 2Wo" />
    </vehicle>
    <vehicle id="337" depart="183.00" departLane="best" departPos="random" departSpeed="max">
        <route edges="1Ni 3Ni 3So" />
    </vehicle>
    <vehicle id="339" depart="184.00" departLane="best" departPos="random" departSpeed="max">
        <route edges="2Si 2Wo" />
    </vehicle>
    <vehicle id="342" depart="186.00" departLane="best" departPos="random" departSpeed="max">
        <route edges="3Si 1Si 1No" />
    </vehicle>
    <vehicle id="343" depart="186.00" departLane="best" departPos="random" departSpeed="max">
        <route edges="2Si 0Si 1Wi 3Ni 2Ei 2So" />
    </vehicle>
    <vehicle id="344" depart="186.00" departLane="best" departPos="random" departSpeed="max">
        <route edges="3Si 2Ei 2So" />
    </vehicle>
    <vehicle id="346" depart="187.00" departLane="best" departPos="random" departSpeed="max">
        <route edges="1Ni 3Ni 2Ei 0Si 1Wi 1No" />
    </vehicle>
    <vehicle id="352" depart="190.00" departLane="best" departPos="random" departSpeed="max">
        <route edges="1Ni 0Ei 2Ni 2So" />
    </vehicle>
    <vehicle id="355" depart="191.00" departLane="best" departPos="random" departSpeed="max">
        <route edges="0Ni 2Ni 2Wo" />
    </vehicle>
    <vehicle id="357" depart="192.00" departLane="best" departPos="random" departSpeed="max">
        <route edges="3Si" />
    </vehicle>
    <vehicle id="358" depart="193.00" departLane="best" departPos="random" departSpeed="max">
        <route edges="2Si 0Si 1Wi 3Ni 2Ei 2So" />
    </vehicle>
    <vehicle id="359" depart="193.00" departLane="best" departPos="random" departSpeed="max">
        <route edges="2Si 0Si 1Wi 1No" />
    </vehicle>
    <vehicle id="361" depart="195.00" departLane="best" departPos="random" departSpeed="max">
        <route edges="0Ni 2Ni 2So" />
    </vehicle>
    <vehicle id="364" depart="196.00" departLane="best" departPos="random" departSpeed="max">
        <route edges="2Si 2Wo" />
    </vehicle>
    <vehicle id="366" depart="196.00" departLane="best" departPos="random" departSpeed="max">
        <route edges="3Si 3Eo" />
    </vehicle>
    <vehicle id="369" depart="199.00" departLane="best" departPos="random" departSpeed="max">
        <route edges="1Ni 0Ei 0Wo" />
    </vehicle>
    <vehicle id="370" depart="201.00" departLane="best" departPos="random" departSpeed="max">
        <route edges="0Ni 1Wi 1No" />
    </vehicle>