<?xml version='1.0' encoding='utf-8'?>
<routes><vehicle id="2" depart="0.00" departLane="best" departPos="random" departSpeed="max">
        <route edges="0Ni 1Wi 3Ni 2Ei 0Si 0No" />
    </vehicle>
    <vehicle id="5" depart="1.00" departLane="best" departPos="random" departSpeed="max">
        <route edges="2Si 0Si 0Wo" />
    </vehicle>
    <vehicle id="12" depart="7.00" departLane="best" departPos="random" departSpeed="max">
        <route edges="0Ni 2Ni 2Wo" />
    </vehicle>
    <vehicle id="22" depart="14.00" departLane="best" departPos="random" departSpeed="max">
        <route edges="2Si 0Si 0No" />
    </vehicle>
    <vehicle id="26" depart="15.00" departLane="best" departPos="random" departSpeed="max">
        <route edges="0Ni 1Wi 1Eo" />
    </vehicle>
    <vehicle id="31" depart="16.00" departLane="best" departPos="random" departSpeed="max">
        <route edges="0Ni 0Wo" />
    </vehicle>
    <vehicle id="35" depart="17.00" departLane="best" departPos="random" departSpeed="max">
        <route edges="0Ni 1Wi 1No" />
    </vehicle>
    <vehicle id="50" depart="23.00" departLane="best" departPos="random" departSpeed="max">
        <route edges="0Ni 1Wi 1Eo" />
    </vehicle>
    <vehicle id="58" depart="28.00" departLane="best" departPos="random" departSpeed="max">
        <route edges="0Ni 2Ni 3Wi 3Eo" />
    </vehicle>
    <vehicle id="66" depart="33.00" departLane="best" departPos="random" departSpeed="max">
        <route edges="2Si 0Si 0Wo" />
    </vehicle>
    <vehicle id="75" depart="37.00" departLane="best" departPos="random" departSpeed="max">
        <route edges="0Ni 2Ni 3Wi 3Eo" />
    </vehicle>
    <vehicle id="103" depart="51.00" departLane="best" departPos="random" departSpeed="max">
        <route edges="2Si 0Si 0Wo" />
    </vehicle>
    <vehicle id="104" depart="52.00" departLane="best" departPos="random" departSpeed="max">
        <route edges="0Ni 2Ni 3Wi 3Eo" />
    </vehicle>
    <vehicle id="110" depart="55.00" departLane="best" departPos="random" departSpeed="max">
        <route edges="0Ni 1Wi 1Eo" />
    </vehicle>
    <vehicle id="117" depart="60.00" departLane="best" departPos="random" departSpeed="max">
        <route edges="0Ni 2Ni 3Wi 3So" />
    </vehicle>
    <vehicle id="125" depart="65.00" departLane="best" departPos="random" departSpeed="max">
        <route edges="0Ni 1Wi 1No" />
    </vehicle>
    <vehicle id="127" depart="68.00" departLane="best" departPos="random" departSpeed="max">
        <route edges="0Ni 0Wo" />
    </vehicle>
    <vehicle id="130" depart="69.00" departLane="best" departPos="random" departSpeed="max">
        <route edges="0Ni 1Wi 1Eo" />
    </vehicle>
    <vehicle id="138" depart="71.00" departLane="best" departPos="random" departSpeed="max">
        <route edges="0Ni 1Wi 1Eo" />
    </vehicle>
    <vehicle id="139" depart="71.00" departLane="best" departPos="random" departSpeed="max">
        <route edges="0Ni 2Ni 3Wi 3So" />
    </vehicle>
    <vehicle id="154" depart="83.00" departLane="best" departPos="random" departSpeed="max">
        <route edges="0Ni 0Wo" />
    </vehicle>
    <vehicle id="158" depart="88.00" departLane="best" departPos="random" departSpeed="max">
        <route edges="0Ni 2Ni 3Wi 3So" />
    </vehicle>
    <vehicle id="163" depart="92.00" departLane="best" departPos="random" departSpeed="max">
        <route edges="0Ni 1Wi 1Eo" />
    </vehicle>
    <vehicle id="164" depart="93.00" departLane="best" departPos="random" departSpeed="max">
        <route edges="0Ni 2Ni 3Wi 3Eo" />
    </vehicle>
    <vehicle id="174" depart="96.00" departLane="best" departPos="random" departSpeed="max">
        <route edges="0Ni 1Wi 3Ni 2Ei 0Si 0No" />
    </vehicle>
    <vehicle id="184" depart="100.00" departLane="best" departPos="random" departSpeed="max">
        <route edges="2Si 0Si 0Wo" />
    </vehicle>
    <vehicle id="197" depart="105.00" departLane="best" departPos="random" departSpeed="max">
        <route edges="0Ni 2Ni 3Wi 3Eo" />
    </vehicle>
    <vehicle id="211" depart="115.00" departLane="best" departPos="random" departSpeed="max">
        <route edges="0Ni 0Wo" />
    </vehicle>
    <vehicle id="216" depart="117.00" departLane="best" departPos="random" departSpeed="max">
        <route edges="0Ni 1Wi 1No" />
    </vehicle>
    <vehicle id="219" depart="119.00" departLane="best" departPos="random" departSpeed="max">
        <route edges="2Si 0Si 0Wo" />
    </vehicle>
    <vehicle id="220" depart="119.00" departLane="best" departPos="random" departSpeed="max">
        <route edges="2Si 0Si 0No" />
    </vehicle>
    <vehicle id="224" depart="121.00" departLane="best" departPos="random" departSpeed="max">
        <route edges="0Ni 2Ni 3Wi 3Eo" />
    </vehicle>
    <vehicle id="232" depart="123.00" departLane="best" departPos="random" departSpeed="max">
        <route edges="2Si 0Si 0Wo" />
    </vehicle>
    <vehicle id="238" depart="126.00" departLane="best" departPos="random" departSpeed="max">
        <route edges="0Ni 1Wi 1No" />
    </vehicle>
    <vehicle id="239" depart="127.00" departLane="best" departPos="random" departSpeed="max">
        <route edges="0Ni 1Wi 1No" />
    </vehicle>
    <vehicle id="250" depart="139.00" departLane="best" departPos="random" departSpeed="max">
        <route edges="0Ni 2Ni 3Wi 3So" />
    </vehicle>
    <vehicle id="255" depart="141.00" departLane="best" departPos="random" departSpeed="max">
        <route edges="2Si 0Si 0No" />
    </vehicle>
    <vehicle id="261" depart="144.00" departLane="best" departPos="random" departSpeed="max">
        <route edges="0Ni 2Ni 2So" />
    </vehicle>
    <vehicle id="264" depart="144.00" departLane="best" departPos="random" departSpeed="max">
        <route edges="0Ni 2Ni 3Wi 3Eo" />
    </vehicle>
    <vehicle id="265" depart="144.00" departLane="best" departPos="random" departSpeed="max">
        <route edges="0Ni 1Wi 1Eo" />
    </vehicle>
    <vehicle id="273" depart="150.00" departLane="best" departPos="random" departSpeed="max">
        <route edges="0Ni 2Ni 2Wo" />
    </vehicle>
    <vehicle id="274" depart="150.00" departLane="best" departPos="random" departSpeed="max">
        <route edges="2Si 0Si 0Wo" />
    </vehicle>
    <vehicle id="282" depart="153.00" departLane="best" departPos="random" departSpeed="max">
        <route edges="0Ni 2Ni 2So" />
    </vehicle>
    <vehicle id="285" depart="153.00" departLane="best" departPos="random" departSpeed="max">
        <route edges="0Ni 1Wi 3Ni 2Ei 0Si 0No" />
    </vehicle>
    <vehicle id="288" depart="155.00" departLane="best" departPos="random" departSpeed="max">
        <route edges="2Si 0Si 0No" />
    </vehicle>
    <vehicle id="297" depart="160.00" departLane="best" departPos="random" departSpeed="max">
        <route edges="0Ni 1Wi 3Ni 2Ei 0Si 0No" />
    </vehicle>
    <vehicle id="314" depart="170.00" departLane="best" departPos="random" departSpeed="max">
        <route edges="2Si 0Si 0Wo" />
    </vehicle>
    <vehicle id="315" depart="171.00" departLane="best" departPos="random" departSpeed="max">
        <route edges="0Ni 1Wi 3Ni 2Ei 0Si 0No" />
    </vehicle>
    <vehicle id="319" depart="172.00" departLane="best" departPos="random" departSpeed="max">
        <route edges="0Ni 1Wi 1Eo" />
    </vehicle>
    <vehicle id="320" depart="174.00" departLane="best" departPos="random" departSpeed="max">
        <route edges="0Ni 1Wi 1No" />
    </vehicle>
    <vehicle id="334" depart="180.00" departLane="best" departPos="random" departSpeed="max">
        <route edges="0Ni 2Ni 3Wi 3Eo" />
    </vehicle>
    <vehicle id="355" depart="191.00" departLane="best" departPos="random" departSpeed="max">
        <route edges="0Ni 2Ni 2Wo" />
    </vehicle>
    <vehicle id="361" depart="195.00" departLane="best" departPos="random" departSpeed="max">
        <route edges="0Ni 2Ni 2So" />
    </vehicle>
    <vehicle id="370" depart="201.00" departLane="best" departPos="random" departSpeed="max">
        <route edges="0Ni 1Wi 1No" />
    </vehicle>
    <vehicle id="382" depart="209.00" departLane="best" departPos="random" departSpeed="max">
        <route edges="0Ni 2Ni 2Wo" />
    </vehicle>
    <vehicle id="384" depart="211.00" departLane="best" departPos="random" departSpeed="max">
        <route edges="0Ni 1Wi 3Ni 2Ei 0Si 0No" />
    </vehicle>
    <vehicle id="403" depart="221.00" departLane="best" departPos="random" departSpeed="max">
        <route edges="0Ni 2Ni 2Wo" />
    </vehicle>
    <vehicle id="404" depart="222.00" departLane="best" departPos="random" departSpeed="max">
        <route edges="0Ni 2Ni 3Wi 3Eo" />
    </vehicle>
    <vehicle id="406" depart="223.00" departLane="best" departPos="random" departSpeed="max">
        <route edges="0Ni 1Wi 3Ni 2Ei" />
    </vehicle>
    <vehicle id="410" depart="226.00" departLane="best" departPos="random" departSpeed="max">
        <route edges="0Ni 1Wi 1No" />
    </vehicle>
    <vehicle id="412" depart="226.00" departLane="best" departPos="random" departSpeed="max">
        <route edges="2Si 0Si 0No" />
    </vehicle>
    <vehicle id="418" depart="229.00" departLane="best" departPos="random" departSpeed="max">
        <route edges="0Ni 2Ni 3Wi 3So" />
    </vehicle>
    <vehicle id="422" depart="231.00" departLane="best" departPos="random" departSpeed="max">
        <route edges="0Ni 1Wi 1Eo" />
    </vehicle>
    <vehicle id="426" depart="233.00" departLane="best" departPos="random" departSpeed="max">
        <route edges="0Ni 1Wi 3Ni 2Ei 0Si 0No" />
    </vehicle>
    <vehicle id="427" depart="233.00" departLane="best" departPos="random" departSpeed="max">
        <route edges="0Ni 1Wi 3Ni 2Ei 0Si 0No" />
    </vehicle>
    <vehicle id="431" depart="236.00" departLane="best" departPos="random" departSpeed="max">
        <route edges="2Si 0Si 0No" />
    </vehicle>
    <vehicle id="439" depart="239.00" departLane="best" departPos="random" departSpeed="max">
        <route edges="0Ni 1Wi 1No" />
    </vehicle>
    <vehicle id="453" depart="245.00" departLane="best" departPos="random" departSpeed="max">
        <route edges="0Ni 1Wi 1Eo" />
    </vehicle>
    <vehicle id="485" depart="260.00" departLane="best" departPos="random" departSpeed="max">
        <route edges="0Ni 1Wi 1Eo" />
    </vehicle>
    <vehicle id="489" depart="263.00" departLane="best" departPos="random" departSpeed="max">
        <route edges="2Si 0Si 0Wo" />
    </vehicle>
    <vehicle id="490" depart="264.00" departLane="best" departPos="random" departSpeed="max">
        <route edges="0Ni 1Wi 1No" />
    </vehicle>
    <vehicle id="514" depart="275.00" departLane="best" departPos="random" departSpeed="max">
        <route edges="0Ni 2Ni 3Wi 3Eo" />
    </vehicle>
    <vehicle id="516" depart="277.00" departLane="best" departPos="random" departSpeed="max">
        <route edges="2Si 0Si 0Wo" />
    </vehicle>
    <vehicle id="533" depart="286.00" departLane="best" departPos="random" departSpeed="max">
        <route edges="0Ni 2Ni 3Wi 3Eo" />
    </vehicle>
    <vehicle id="535" depart="288.00" departLane="best" departPos="random" departSpeed="max">
        <route edges="0Ni 1Wi 1Eo" />
    </vehicle>
    <vehicle id="537" depart="289.00" departLane="best" departPos="random" departSpeed="max">
        <route edges="2Si 0Si 0No" />
    </vehicle>
    <vehicle id="540" depart="291.00" departLane="best" departPos="random" departSpeed="max">
        <route edges="2Si 0Si 0Wo" />
    </vehicle>
    <vehicle id="547" depart="292.00" departLane="best" departPos="random" departSpeed="max">
        <route edges="2Si 0Si 0Wo" />
    </vehicle>
    <vehicle id="552" depart="294.00" departLane="best" departPos="random" departSpeed="max">
        <route edges="0Ni 1Wi 1Eo" />
    </vehicle>
    <vehicle id="563" depart="298.00" departLane="best" departPos="random" departSpeed="max">
        <route edges="0Ni 1Wi 3Ni 2Ei 0Si 0No" />
    </vehicle>
    <vehicle id="569" depart="301.00" departLane="best" departPos="random" departSpeed="max">
        <route edges="2Si 0Si 0Wo" />
    </vehicle>
    <vehicle id="571" depart="302.00" departLane="best" departPos="random" departSpeed="max">
        <route edges="0Ni 2Ni 3Wi 3So" />
    </vehicle>
    <vehicle id="573" depart="302.00" departLane="best" departPos="random" departSpeed="max">
        <route edges="0Ni 2Ni 3Wi 3Eo" />
    </vehicle>
    <vehicle id="576" depart="303.00" departLane="best" departPos="random" departSpeed="max">
        <route edges="0Ni 2Ni 3Wi 3Eo" />
    </vehicle>
    <vehicle id="580" depart="304.00" departLane="best" departPos="random" departSpeed="max">
        <route edges="0Ni 2Ni 3Wi 3Eo" />
    </vehicle>
    <vehicle id="609" depart="314.00" departLane="best" departPos="random" departSpeed="max">
        <route edges="0Ni 2Ni 2So" />
    </vehicle>
    <vehicle id="618" depart="317.00" departLane="best" departPos="random" departSpeed="max">
        <route edges="2Si 0Si 0No" />
    </vehicle>
    <vehicle id="619" depart="317.00" departLane="best" departPos="random" departSpeed="max">
        <route edges="0Ni 2Ni 2So" />
    </vehicle>
    <vehicle id="628" depart="321.00" departLane="best" departPos="random" departSpeed="max">
        <route edges="2Si 0Si 0No" />
    </vehicle>
    <vehicle id="635" depart="324.00" departLane="best" departPos="random" departSpeed="max">
        <route edges="0Ni 2Ni 2Wo" />
    </vehicle>
    <vehicle id="637" depart="326.00" departLane="best" departPos="random" departSpeed="max">
        <route edges="0Ni 1Wi 3Ni 2Ei 0Si 0No" />
    </vehicle>
    <vehicle id="657" depart="335.00" departLane="best" departPos="random" departSpeed="max">
        <route edges="2Si 0Si 0Wo" />
    </vehicle>
    <vehicle id="659" depart="336.00" departLane="best" departPos="random" departSpeed="max">
        <route edges="0Ni 1Wi 1Eo" />
    </vehicle>
    <vehicle id="667" depart="339.00" departLane="best" departPos="random" departSpeed="max">
        <route edges="2Si 0Si 0No" />
    </vehicle>
    <vehicle id="675" depart="344.00" departLane="best" departPos="random" departSpeed="max">
        <route edges="0Ni 1Wi 3Ni 2Ei 0Si 0No" />
    </vehicle>
    <vehicle id="680" depart="346.00" departLane="best" departPos="random" departSpeed="max">
        <route edges="0Ni 1Wi 1Eo" />
    </vehicle>
    <vehicle id="683" depart="349.00" departLane="best" departPos="random" departSpeed="max">
        <route edges="2Si 0Si 0No" />
    </vehicle>
    <vehicle id="696" depart="353.00" departLane="best" departPos="random" departSpeed="max">
        <route edges="2Si 0Si 0No" />
    </vehicle>
    <vehicle id="703" depart="357.00" departLane="best" departPos="random" departSpeed="max">
        <route edges="0Ni 2Ni 2Wo" />
    </vehicle>
    <vehicle id="705" depart="360.00" departLane="best" departPos="random" departSpeed="max">
        <route edges="0Ni 0Wo" />
    </vehicle>
    <vehicle id="708" depart="362.00" departLane="best" departPos="random" departSpeed="max">
        <route edges="0Ni 2Ni 2So" />
    </vehicle>
    <vehicle id="714" depart="366.00" departLane="best" departPos="random" departSpeed="max">
        <route edges="0Ni 2Ni 3Wi 3Eo" />
    </vehicle>
    <vehicle id="716" depart="368.00" departLane="best" departPos="random" departSpeed="max">
        <route edges="0Ni 1Wi 3Ni 2Ei 0Si 0No" />
    </vehicle>
    <vehicle id="728" depart="372.00" departLane="best" departPos="random" departSpeed="max">
        <route edges="0Ni 2Ni 2So" />
    </vehicle>
    <vehicle id="750" depart="383.00" departLane="best" departPos="random" departSpeed="max">
        <route edges="0Ni 0Wo" />
    </vehicle>
    <vehicle id="769" depart="392.00" departLane="best" departPos="random" departSpeed="max">
        <route edges="0Ni 2Ni 3Wi 3Eo" />
    </vehicle>
    <vehicle id="774" depart="395.00" departLane="best" departPos="random" departSpeed="max">
        <route edges="0Ni 1Wi 1No" />
    </vehicle>
    <vehicle id="778" depart="396.00" departLane="best" departPos="random" departSpeed="max">
        <route edges="0Ni 2Ni 3Wi 3Eo" />
    </vehicle>
    <vehicle id="788" depart="402.00" departLane="best" departPos="random" departSpeed="max">
        <route edges="0Ni 2Ni 3Wi 3Eo" />
    </vehicle>
    <vehicle id="791" depart="403.00" departLane="best" departPos="random" departSpeed="max">
        <route edges="0Ni 2Ni 3Wi 3Eo" />
    </vehicle>
    <vehicle id="795" depart="404.00" departLane="best" departPos="random" departSpeed="max">
        <route edges="0Ni 2Ni 2Wo" />
    </vehicle>
    <vehicle id="796" depart="404.00" departLane="best" departPos="random" departSpeed="max">
        <route edges="0Ni 0Wo" />
    </vehicle>
    <vehicle id="804" depart="409.00" departLane="best" departPos="random" departSpeed="max">
        <route edges="0Ni 2Ni 2Wo" />
    </vehicle>
    <vehicle id="805" depart="409.00" departLane="best" departPos="random" departSpeed="max">
        <route edges="0Ni 0Wo" />
    </vehicle>
    <vehicle id="824" depart="420.00" departLane="best" departPos="random" departSpeed="max">
        <route edges="0Ni 2Ni 3Wi 3Eo" />
    </vehicle>
    <vehicle id="830" depart="423.00" departLane="best" departPos="random" departSpeed="max">
        <route edges="0Ni 2Ni 3Wi 3Eo" />
    </vehicle>
    <vehicle id="833" depart="424.00" departLane="best" departPos="random" departSpeed="max">
        <route edges="0Ni 2Ni 3Wi 3So" />
    </vehicle>
    <vehicle id="839" depart="428.00" departLane="best" departPos="random" departSpeed="max">
        <route edges="0Ni 1Wi 1Eo" />
    </vehicle>
    <vehicle id="845" depart="430.00" departLane="best" departPos="random" departSpeed="max">
        <route edges="2Si 0Si 0Wo" />
    </vehicle>
    <vehicle id="850" depart="432.00" departLane="best" departPos="random" departSpeed="max">
        <route edges="0Ni 1Wi 1Eo" />
    </vehicle>
    <vehicle id="865" depart="439.00" departLane="best" departPos="random" departSpeed="max">
        <route edges="0Ni 2Ni 3Wi 3Eo" />
    </vehicle>
    <vehicle id="872" depart="443.00" departLane="best" departPos="random" departSpeed="max">
        <route edges="2Si 0Si 0Wo" />
    </vehicle>
    <vehicle id="887" depart="450.00" departLane="best" departPos="random" departSpeed="max">
        <route edges="0Ni 0Wo" />
    </vehicle>
    <vehicle id="903" depart="459.00" departLane="best" departPos="random" departSpeed="max">
        <route edges="2Si 0Si 0Wo" />
    </vehicle>
    <vehicle id="935" depart="478.00" departLane="best" departPos="random" departSpeed="max">
        <route edges="0Ni 2Ni 2Wo" />
    </vehicle>
    <vehicle id="936" depart="478.00" departLane="best" departPos="random" departSpeed="max">
        <route edges="0Ni 1Wi 1Eo" />
    </vehicle>
    <vehicle id="938" depart="479.00" departLane="best" departPos="random" departSpeed="max">
        <route edges="0Ni 2Ni 3Wi 3Eo" />
    </vehicle>
    <vehicle id="940" depart="479.00" departLane="best" departPos="random" departSpeed="max">
        <route edges="0Ni 1Wi 1No" />
    </vehicle>
    <vehicle id="947" depart="483.00" departLane="best" departPos="random" departSpeed="max">
        <route edges="0Ni 0Wo" />
    </vehicle>
    <vehicle id="953" depart="486.00" departLane="best" departPos="random" departSpeed="max">
        <route edges="2Si 0Si 0No" />
    </vehicle>
    <vehicle id="957" depart="490.00" departLane="best" departPos="random" departSpeed="max">
        <route edges="2Si 0Si 0No" />
    </vehicle>
    <vehicle id="968" depart="499.00" departLane="best" departPos="random" departSpeed="max">
        <route edges="0Ni 2Ni 3Wi 3So" />
    </vehicle>
    <vehicle id="974" depart="501.00" departLane="best" departPos="random" departSpeed="max">
        <route edges="0Ni 2Ni 3Wi 3Eo" />
    </vehicle>
    <vehicle id="975" depart="501.00" departLane="best" departPos="random" departSpeed="max">
        <route edges="0Ni 1Wi 1Eo" />
    </vehicle>
    <vehicle id="976" depart="503.00" departLane="best" departPos="random" departSpeed="max">
        <route edges="0Ni 1Wi 1No" />
    </vehicle>
    <vehicle id="979" depart="504.00" departLane="best" departPos="random" departSpeed="max">
        <route edges="0Ni 2Ni 2So" />
    </vehicle>
    <vehicle id="985" depart="507.00" departLane="best" departPos="random" departSpeed="max">
        <route edges="0Ni 2Ni 3Wi 3Eo" />
    </vehicle>
    <vehicle id="991" depart="511.00" departLane="best" departPos="random" departSpeed="max">
        <route edges="2Si 0Si 0Wo" />
    </vehicle>
    <vehicle id="995" depart="512.00" departLane="best" departPos="random" departSpeed="max">
        <route edges="0Ni 2Ni 3Wi 3So" />
    </vehicle>
    <vehicle id="1004" depart="517.00" departLane="best" departPos="random" departSpeed="max">
        <route edges="0Ni 2Ni 2Wo" />
    </vehicle>
    <vehicle id="1005" depart="517.00" departLane="best" departPos="random" departSpeed="max">
        <route edges="0Ni 2Ni 3Wi 3So" />
    </vehicle>
    <vehicle id="1007" depart="519.00" departLane="best" departPos="random" departSpeed="max">
        <route edges="0Ni 2Ni 2Wo" />
    </vehicle>
    <vehicle id="1011" depart="521.00" departLane="best" departPos="random" departSpeed="max">
        <route edges="0Ni 2Ni 2So" />
    </vehicle>
    <vehicle id="1028" depart="530.00" departLane="best" departPos="random" departSpeed="max">
        <route edges="0Ni 0Wo" />
    </vehicle>
    <vehicle id="1031" depart="531.00" departLane="best" departPos="random" departSpeed="max">
        <route edges="2Si 0Si 0Wo" />
    </vehicle>
    <vehicle id="1042" depart="535.00" departLane="best" departPos="random" departSpeed="max">
        <route edges="0Ni 1Wi 3Ni 2Ei 0Si 0No" />
    </vehicle>
    <vehicle id="1044" depart="535.00" departLane="best" departPos="random" departSpeed="max">
        <route edges="0Ni 2Ni 2Wo" />
    </vehicle>
    <vehicle id="1048" depart="539.00" departLane="best" departPos="random" departSpeed="max">
        <route edges="0Ni 1Wi 3Ni 2Ei 0Si 0No" />
    </vehicle>
    <vehicle id="1053" depart="540.00" departLane="best" departPos="random" departSpeed="max">
        <route edges="2Si 0Si 0Wo" />
    </vehicle>
    <vehicle id="1055" depart="541.00" departLane="best" departPos="random" departSpeed="max">
        <route edges="0Ni 2Ni 2Wo" />
    </vehicle>
    <vehicle id="1085" depart="558.00" departLane="best" departPos="random" departSpeed="max">
        <route edges="2Si 0Si 0No" />
    </vehicle>
    <vehicle id="1088" depart="560.00" departLane="best" departPos="random" departSpeed="max">
        <route edges="0Ni 2Ni 3Wi 3So" />
    </vehicle>
    <vehicle id="1102" depart="568.00" departLane="best" departPos="random" departSpeed="max">
        <route edges="0Ni 0Wo" />
    </vehicle>
    <vehicle id="1131" depart="584.00" departLane="best" departPos="random" departSpeed="max">
        <route edges="0Ni 1Wi 1Eo" />
    </vehicle>
    <vehicle id="1137" depart="586.00" departLane="best" departPos="random" departSpeed="max">
        <route edges="2Si 0Si 0Wo" />
    </vehicle>
    <vehicle id="1142" depart="590.00" departLane="best" departPos="random" departSpeed="max">
        <route edges="2Si 0Si 0Wo" />
    </vehicle>
    <vehicle id="1149" depart="595.00" departLane="best" departPos="random" departSpeed="max">
        <route edges="0Ni 2Ni 2So" />
    </vehicle>
    <vehicle id="1152" depart="597.00" departLane="best" departPos="random" departSpeed="max">
        <route edges="0Ni 2Ni 2Wo" />
    </vehicle>
    <vehicle id="1153" depart="597.00" departLane="best" departPos="random" departSpeed="max">
        <route edges="0Ni 2Ni 2Wo" />
    </vehicle>
    <vehicle id="1161" depart="601.00" departLane="best" departPos="random" departSpeed="max">
        <route edges="0Ni 0Wo" />
    </vehicle>
    <vehicle id="1164" depart="603.00" departLane="best" departPos="random" departSpeed="max">
        <route edges="2Si 0Si 0Wo" />
    </vehicle>
    <vehicle id="1170" depart="606.00" departLane="best" departPos="random" departSpeed="max">
        <route edges="0Ni 0Wo" />
    </vehicle>
    <vehicle id="1176" depart="609.00" departLane="best" departPos="random" departSpeed="max">
        <route edges="2Si 0Si 0Wo" />
    </vehicle>
    <vehicle id="1191" depart="616.00" departLane="best" departPos="random" departSpeed="max">
        <route edges="0Ni 1Wi 1No" />
    </vehicle>
    <vehicle id="1204" depart="622.00" departLane="best" departPos="random" departSpeed="max">
        <route edges="0Ni 1Wi 3Ni 2Ei 0Si 0No" />
    </vehicle>
    <vehicle id="1210" depart="627.00" departLane="best" departPos="random" departSpeed="max">
        <route edges="0Ni 2Ni 3Wi 3So" />
    </vehicle>
    <vehicle id="1212" depart="627.00" departLane="best" departPos="random" departSpeed="max">
        <route edges="0Ni 2Ni 3Wi 3So" />
    </vehicle>
    <vehicle id="1222" depart="631.00" departLane="best" departPos="random" departSpeed="max">
        <route edges="0Ni 0Wo" />
    </vehicle>
    <vehicle id="1223" depart="631.00" departLane="best" departPos="random" departSpeed="max">
        <route edges="0Ni 2Ni 3Wi 3So" />
    </vehicle>
    <vehicle id="1238" depart="638.00" departLane="best" departPos="random" departSpeed="max">
        <route edges="0Ni 0Wo" />
    </vehicle>
    <vehicle id="1239" depart="639.00" departLane="best" departPos="random" departSpeed="max">
        <route edges="0Ni 0Wo" />
    </vehicle>
    <vehicle id="1240" depart="640.00" departLane="best" departPos="random" departSpeed="max">
        <route edges="0Ni 2Ni 3Wi 3Eo" />
    </vehicle>
    <vehicle id="1248" depart="645.00" departLane="best" departPos="random" departSpeed="max">
        <route edges="2Si 0Si 0No" />
    </vehicle>
    <vehicle id="1249" depart="645.00" departLane="best" departPos="random" departSpeed="max">
        <route edges="0Ni 2Ni 3Wi 3Eo" />
    </vehicle>
    <vehicle id="1257" depart="650.00" departLane="best" departPos="random" departSpeed="max">
        <route edges="2Si 0Si 0No" />
    </vehicle>
    <vehicle id="1280" depart="662.00" departLane="best" departPos="random" departSpeed="max">
        <route edges="2Si 0Si 0No" />
    </vehicle>
    <vehicle id="1283" depart="663.00" departLane="best" departPos="random" departSpeed="max">
        <route edges="0Ni 0Wo" />
    </vehicle>
    <vehicle id="1290" depart="665.00" departLane="best" departPos="random" departSpeed="max">
        <route edges="0Ni 1Wi 3Ni 2Ei 0Si 0No" />
    </vehicle>
    <vehicle id="1302" depart="671.00" departLane="best" departPos="random" departSpeed="max">
        <route edges="0Ni 2Ni 3Wi 3Eo" />
    </vehicle>
    <vehicle id="1326" depart="686.00" departLane="best" departPos="random" departSpeed="max">
        <route edges="0Ni 2Ni 2Wo" />
    </vehicle>
    <vehicle id="1327" depart="687.00" departLane="best" departPos="random" departSpeed="max">
        <route edges="0Ni 0Wo" />
    </vehicle>
    <vehicle id="1345" depart="697.00" departLane="best" departPos="random" departSpeed="max">
        <route edges="0Ni 2Ni 3Wi 3So" />
    </vehicle>
    <vehicle id="1355" depart="702.00" departLane="best" departPos="random" departSpeed="max">
        <route edges="0Ni 0Wo" />
    </vehicle>
    <vehicle id="1360" depart="704.00" departLane="best" departPos="random" departSpeed="max">
        <route edges="0Ni 1Wi 1No" />
    </vehicle>
    <vehicle id="1369" depart="709.00" departLane="best" departPos="random" departSpeed="max">
        <route edges="0Ni 2Ni 3Wi 3So" />
    </vehicle>
    <vehicle id="1377" depart="714.00" departLane="best" departPos="random" departSpeed="max">
        <route edges="0Ni 0Wo" />
    </vehicle>
    <vehicle id="1385" depart="718.00" departLane="best" departPos="random" departSpeed="max">
        <route edges="0Ni 1Wi 1Eo" />
    </vehicle>
    <vehicle id="1389" depart="720.00" departLane="best" departPos="random" departSpeed="max">
        <route edges="2Si 0Si 0Wo" />
    </vehicle>
    <vehicle id="1397" depart="723.00" departLane="best" departPos="random" departSpeed="max">
        <route edges="0Ni 2Ni 2So" />
    </vehicle>
    <vehicle id="1407" depart="728.00" departLane="best" departPos="random" departSpeed="max">
        <route edges="0Ni 2Ni 2So" />
    </vehicle>
    <vehicle id="1414" depart="730.00" departLane="best" departPos="random" departSpeed="max">
        <route edges="0Ni 1Wi 3Ni 2Ei 0Si 0No" />
    </vehicle>
    <vehicle id="1425" depart="736.00" departLane="best" departPos="random" departSpeed="max">
        <route edges="2Si 0Si 0Wo" />
    </vehicle>
    <vehicle id="1427" depart="737.00" departLane="best" departPos="random" departSpeed="max">
        <route edges="0Ni 1Wi 1No" />
    </vehicle>
    <vehicle id="1428" depart="737.00" departLane="best" departPos="random" departSpeed="max">
        <route edges="0Ni 2Ni 2Wo" />
    </vehicle>
    <vehicle id="1430" depart="737.00" departLane="best" departPos="random" departSpeed="max">
        <route edges="0Ni 2Ni 3Wi 3So" />
    </vehicle>
    <vehicle id="1439" depart="744.00" departLane="best" departPos="random" departSpeed="max">
        <route edges="0Ni 1Wi 3Ni 2Ei 0Si 0No" />
    </vehicle>
    <vehicle id="1440" depart="745.00" departLane="best" departPos="random" departSpeed="max">
        <route edges="0Ni 2Ni 3Wi 3So" />
    </vehicle>
    <vehicle id="1446" depart="749.00" departLane="best" departPos="random" departSpeed="max">
        <route edges="0Ni 1Wi 3Ni 2Ei 0Si 0No" />
    </vehicle>
    <vehicle id="1450" depart="751.00" departLane="best" departPos="random" departSpeed="max">
        <route edges="0Ni 0Wo" />
    </vehicle>
    <vehicle id="1458" depart="753.00" departLane="best" departPos="random" departSpeed="max">
        <route edges="2Si 0Si 0No" />
    </vehicle>
    <vehicle id="1463" depart="757.00" departLane="best" departPos="random" departSpeed="max">
        <route edges="0Ni 1Wi 3Ni 2Ei 0Si 0No" />
    </vehicle>