<?xml version="1.0" encoding="UTF-8"?>

<!-- generated on 2024-09-04 21:50:51.266317 by randomTrips.py v1_19_0+0000-baa66a0f364
<configuration>
    <net-file value="22grid_self.net.xml"/>
    <route-file value="routes_self.rou.xml"/>
    <trip-attributes value="departLane=&quot;best&quot; departSpeed=&quot;max&quot; departPos=&quot;random&quot;"/>
    <allow-fringe value="True"/>
    <random value="True"/>
    <period value="0.5"/>
    <binomial value="100"/>
</configuration>
-->

<!-- generated on 2024-09-04 21:50:50 by Eclipse SUMO duarouter Version 1.19.0
<configuration xmlns:xsi="http://www.w3.org/2001/XMLSchema-instance" xsi:noNamespaceSchemaLocation="http://sumo.dlr.de/xsd/duarouterConfiguration.xsd">

    <input>
        <net-file value="22grid_self.net.xml"/>
        <route-files value="trips.trips.xml"/>
    </input>

    <output>
        <output-file value="routes_self.rou.xml"/>
        <alternatives-output value="NUL"/>
    </output>

    <time>
        <begin value="0"/>
        <end value="3600"/>
    </time>

    <report>
        <no-warnings value="true"/>
        <ignore-errors value="true"/>
        <no-step-log value="true"/>
    </report>

</configuration>
-->

<routes xmlns:xsi="http://www.w3.org/2001/XMLSchema-instance" xsi:noNamespaceSchemaLocation="http://sumo.dlr.de/xsd/routes_file.xsd">
    <vehicle id="4" depart="2.00" departLane="best" departPos="random" departSpeed="max">
        <route edges="2Ei 2So"/>
    </vehicle>
    <vehicle id="5" depart="2.00" departLane="best" departPos="random" departSpeed="max">
        <route edges="0Wi 2Ni 2Wo"/>
    </vehicle>
    <vehicle id="7" depart="5.00" departLane="best" departPos="random" departSpeed="max">
        <route edges="2Wo"/>
    </vehicle>
    <vehicle id="8" depart="6.00" departLane="best" departPos="random" departSpeed="max">
        <route edges="3Ni 2Ei 0Si 0Wo"/>
    </vehicle>
    <vehicle id="11" depart="7.00" departLane="best" departPos="random" departSpeed="max">
        <route edges="2Wi 3Wi 1Si 0Ei"/>
    </vehicle>
    <vehicle id="14" depart="8.00" departLane="best" departPos="random" departSpeed="max">
        <route edges="0Ei 2Ni 2Wo"/>
    </vehicle>
    <vehicle id="17" depart="10.00" departLane="best" departPos="random" departSpeed="max">
        <route edges="3Ei 1Si 0Ei 0Wo"/>
    </vehicle>
    <vehicle id="21" depart="12.00" departLane="best" departPos="random" departSpeed="max">
        <route edges="3Ei 2Ei 2Wo"/>
    </vehicle>
    <vehicle id="35" depart="19.00" departLane="best" departPos="random" departSpeed="max">
        <route edges="1Ni 3Ni"/>
    </vehicle>
    <vehicle id="39" depart="23.00" departLane="best" departPos="random" departSpeed="max">
        <route edges="3Si 1Si 1Eo"/>
    </vehicle>
    <vehicle id="41" depart="23.00" departLane="best" departPos="random" departSpeed="max">
        <route edges="3Ni 2Ei 0Si 1Wi"/>
    </vehicle>
    <vehicle id="42" depart="24.00" departLane="best" departPos="random" departSpeed="max">
        <route edges="1Eo"/>
    </vehicle>
    <vehicle id="43" depart="24.00" departLane="best" departPos="random" departSpeed="max">
        <route edges="0Si 1Wi 3Ni 2Ei 2Wo"/>
    </vehicle>
    <vehicle id="46" depart="25.00" departLane="best" departPos="random" departSpeed="max">
        <route edges="2Wi 0Si 0Wo"/>
    </vehicle>
    <vehicle id="47" depart="25.00" departLane="best" departPos="random" departSpeed="max">
        <route edges="1Wi 3Ni 2Ei"/>
    </vehicle>
    <vehicle id="48" depart="26.00" departLane="best" departPos="random" departSpeed="max">
        <route edges="3Ei 2Ei 0Si 0No"/>
    </vehicle>
    <vehicle id="52" depart="29.00" departLane="best" departPos="random" departSpeed="max">
        <route edges="0Ei 0Wo"/>
    </vehicle>
    <vehicle id="56" depart="30.00" departLane="best" departPos="random" departSpeed="max">
        <route edges="1Ni 3Ni 3So"/>
    </vehicle>
    <vehicle id="59" depart="32.00" departLane="best" departPos="random" departSpeed="max">
        <route edges="3Si 2Ei 2Wo"/>
    </vehicle>
    <vehicle id="61" depart="33.00" departLane="best" departPos="random" departSpeed="max">
        <route edges="0Si 1Wi 3Ni 2Ei"/>
    </vehicle>
    <vehicle id="65" depart="36.00" departLane="best" departPos="random" departSpeed="max">
        <route edges="2Ni 3Wi"/>
    </vehicle>
    <vehicle id="66" depart="37.00" departLane="best" departPos="random" departSpeed="max">
        <route edges="3Si 2Ei 0Si 1Wi"/>
    </vehicle>
    <vehicle id="67" depart="38.00" departLane="best" departPos="random" departSpeed="max">
        <route edges="3Si 2Ei 0Si"/>
    </vehicle>
    <vehicle id="70" depart="39.00" departLane="best" departPos="random" departSpeed="max">
        <route edges="1Ei 3Ni 3Eo"/>
    </vehicle>
    <vehicle id="71" depart="39.00" departLane="best" departPos="random" departSpeed="max">
        <route edges="0Wi 2Ni"/>
    </vehicle>
    <vehicle id="72" depart="40.00" departLane="best" departPos="random" departSpeed="max">
        <route edges="3Ni 2Ei 2So"/>
    </vehicle>
    <vehicle id="74" depart="42.00" departLane="best" departPos="random" departSpeed="max">
        <route edges="3Si 2Ei"/>
    </vehicle>
    <vehicle id="77" depart="45.00" departLane="best" departPos="random" departSpeed="max">
        <route edges="1Ni 3Ni"/>
    </vehicle>
    <vehicle id="79" depart="45.00" departLane="best" departPos="random" departSpeed="max">
        <route edges="3Ni 2Ei 0Si 1Wi"/>
    </vehicle>
    <vehicle id="80" depart="46.00" departLane="best" departPos="random" departSpeed="max">
        <route edges="1Si 1Eo"/>
    </vehicle>
    <vehicle id="82" depart="46.00" departLane="best" departPos="random" departSpeed="max">
        <route edges="1Si 0Ei 2Ni 2Wo"/>
    </vehicle>
    <vehicle id="84" depart="46.00" departLane="best" departPos="random" departSpeed="max">
        <route edges="1Ni 0Ei 2Ni 3Wi"/>
    </vehicle>
    <vehicle id="90" depart="49.00" departLane="best" departPos="random" departSpeed="max">
        <route edges="3Ni 2Ei 0Si 1Wi 1Eo"/>
    </vehicle>
    <vehicle id="91" depart="49.00" departLane="best" departPos="random" departSpeed="max">
        <route edges="3Ni 2Ei 0Si 1Wi"/>
    </vehicle>
    <vehicle id="92" depart="50.00" departLane="best" departPos="random" departSpeed="max">
        <route edges="2Ni 2So"/>
    </vehicle>
    <vehicle id="96" depart="52.00" departLane="best" departPos="random" departSpeed="max">
        <route edges="0Ei 2Ni 3Wi 3Eo"/>
    </vehicle>
    <vehicle id="99" depart="53.00" departLane="best" departPos="random" departSpeed="max">
        <route edges="0Si 0Wo"/>
    </vehicle>
    <vehicle id="101" depart="54.00" departLane="best" departPos="random" departSpeed="max">
        <route edges="3Ni 2Ei 0Si"/>
    </vehicle>
    <vehicle id="102" depart="56.00" departLane="best" departPos="random" departSpeed="max">
        <route edges="2Wi 0Si 1Wi"/>
    </vehicle>
    <vehicle id="104" depart="57.00" departLane="best" departPos="random" departSpeed="max">
        <route edges="0Wi 2Ni 3Wi 3Eo"/>
    </vehicle>
    <vehicle id="107" depart="59.00" departLane="best" departPos="random" departSpeed="max">
        <route edges="0Ni 1Wi 3Ni 2Ei 0Si 0No"/>
    </vehicle>
    <vehicle id="108" depart="59.00" departLane="best" departPos="random" departSpeed="max">
        <route edges="1Si 0Ei 2Ni 2Wo"/>
    </vehicle>
    <vehicle id="109" depart="59.00" departLane="best" departPos="random" departSpeed="max">
        <route edges="3Wi 1Si 0Ei 2Ni 2Wo"/>
    </vehicle>
    <vehicle id="110" depart="59.00" departLane="best" departPos="random" departSpeed="max">
        <route edges="2Ni"/>
    </vehicle>
    <vehicle id="111" depart="59.00" departLane="best" departPos="random" departSpeed="max">
        <route edges="1Ni"/>
    </vehicle>
    <vehicle id="112" depart="60.00" departLane="best" departPos="random" departSpeed="max">
        <route edges="1Ei 3Ni"/>
    </vehicle>
    <vehicle id="113" depart="60.00" departLane="best" departPos="random" departSpeed="max">
        <route edges="2Ei 0Si 1Wi 3Ni"/>
    </vehicle>
    <vehicle id="114" depart="60.00" departLane="best" departPos="random" departSpeed="max">
        <route edges="0Ei 2Ni 3Wi 3So"/>
    </vehicle>
    <vehicle id="118" depart="61.00" departLane="best" departPos="random" departSpeed="max">
        <route edges="0Ni 1Wi"/>
    </vehicle>
    <vehicle id="122" depart="62.00" departLane="best" departPos="random" departSpeed="max">
        <route edges="0Si 1Wi 3Ni 2Ei 2Wo"/>
    </vehicle>
    <vehicle id="124" depart="62.00" departLane="best" departPos="random" departSpeed="max">
        <route edges="2Ei 0Si"/>
    </vehicle>
    <vehicle id="125" depart="62.00" departLane="best" departPos="random" departSpeed="max">
        <route edges="0Si 1Wi 1No"/>
    </vehicle>
    <vehicle id="126" depart="62.00" departLane="best" departPos="random" departSpeed="max">
        <route edges="1Ei"/>
    </vehicle>
    <vehicle id="130" depart="63.00" departLane="best" departPos="random" departSpeed="max">
        <route edges="2Si 3Wi 1Si 0Ei 2Ni"/>
    </vehicle>
    <vehicle id="132" depart="64.00" departLane="best" departPos="random" departSpeed="max">
        <route edges="2Wi 3Wi"/>
    </vehicle>
    <vehicle id="137" depart="66.00" departLane="best" departPos="random" departSpeed="max">
        <route edges="3Ei 1Si 0Ei 2Ni"/>
    </vehicle>
    <vehicle id="141" depart="68.00" departLane="best" departPos="random" departSpeed="max">
        <route edges="0Si 1Wi 1Eo"/>
    </vehicle>
    <vehicle id="142" depart="69.00" departLane="best" departPos="random" departSpeed="max">
        <route edges="0Wi"/>
    </vehicle>
    <vehicle id="144" depart="71.00" departLane="best" departPos="random" departSpeed="max">
        <route edges="2Ei 0Si 1Wi"/>
    </vehicle>
    <vehicle id="145" depart="71.00" departLane="best" departPos="random" departSpeed="max">
        <route edges="2Si 0Si 1Wi 3Ni 2Ei"/>
    </vehicle>
    <vehicle id="147" depart="73.00" departLane="best" departPos="random" departSpeed="max">
        <route edges="3Ei 3So"/>
    </vehicle>
    <vehicle id="151" depart="75.00" departLane="best" departPos="random" departSpeed="max">
        <route edges="0Si 1Wi 3Ni 2Ei 2Wo"/>
    </vehicle>
    <vehicle id="154" depart="78.00" departLane="best" departPos="random" departSpeed="max">
        <route edges="0No"/>
    </vehicle>
    <vehicle id="156" depart="82.00" departLane="best" departPos="random" departSpeed="max">
        <route edges="0Wi 1Wi 3Ni"/>
    </vehicle>
    <vehicle id="158" depart="83.00" departLane="best" departPos="random" departSpeed="max">
        <route edges="3Ei"/>
    </vehicle>
    <vehicle id="159" depart="83.00" departLane="best" departPos="random" departSpeed="max">
        <route edges="2Wi 3Wi"/>
    </vehicle>
    <vehicle id="160" depart="84.00" departLane="best" departPos="random" departSpeed="max">
        <route edges="2Wi 0Si 1Wi"/>
    </vehicle>
    <vehicle id="161" depart="84.00" departLane="best" departPos="random" departSpeed="max">
        <route edges="1Ei 0Ei 2Ni 3Wi"/>
    </vehicle>
    <vehicle id="165" depart="87.00" departLane="best" departPos="random" departSpeed="max">
        <route edges="0Ei 0No"/>
    </vehicle>
    <vehicle id="170" depart="88.00" departLane="best" departPos="random" departSpeed="max">
        <route edges="2Si 3Wi 3So"/>
    </vehicle>
    <vehicle id="174" depart="90.00" departLane="best" departPos="random" departSpeed="max">
        <route edges="3Si 2Ei 0Si 0No"/>
    </vehicle>
    <vehicle id="177" depart="92.00" departLane="best" departPos="random" departSpeed="max">
        <route edges="0Ei 2Ni 2So"/>
    </vehicle>
    <vehicle id="183" depart="95.00" departLane="best" departPos="random" departSpeed="max">
        <route edges="1Si 1Eo"/>
    </vehicle>
    <vehicle id="187" depart="99.00" departLane="best" departPos="random" departSpeed="max">
        <route edges="2Ni 3Wi 1Si 0Ei 0Wo"/>
    </vehicle>
    <vehicle id="190" depart="101.00" departLane="best" departPos="random" departSpeed="max">
        <route edges="0Wi 1Wi 3Ni 2Ei 0Si 0Wo"/>
    </vehicle>
    <vehicle id="192" depart="102.00" departLane="best" departPos="random" departSpeed="max">
        <route edges="0Wi 2Ni 2Wo"/>
    </vehicle>
    <vehicle id="195" depart="102.00" departLane="best" departPos="random" departSpeed="max">
        <route edges="2Ei 0Si 1Wi 3Ni"/>
    </vehicle>
    <vehicle id="196" depart="102.00" departLane="best" departPos="random" departSpeed="max">
        <route edges="3Ni"/>
    </vehicle>
    <vehicle id="200" depart="104.00" departLane="best" departPos="random" departSpeed="max">
        <route edges="1Si 1No"/>
    </vehicle>
    <vehicle id="201" depart="105.00" departLane="best" departPos="random" departSpeed="max">
        <route edges="3Si 1Si 0Ei 2Ni"/>
    </vehicle>
    <vehicle id="202" depart="106.00" departLane="best" departPos="random" departSpeed="max">
        <route edges="3Wi 1Si 0Ei 0Wo"/>
    </vehicle>
    <vehicle id="203" depart="106.00" departLane="best" departPos="random" departSpeed="max">
        <route edges="2Wi 3Wi 1Si 1No"/>
    </vehicle>
    <vehicle id="205" depart="106.00" departLane="best" departPos="random" departSpeed="max">
        <route edges="0Si 1Wi 3Ni 3So"/>
    </vehicle>
    <vehicle id="207" depart="107.00" departLane="best" departPos="random" departSpeed="max">
        <route edges="1Ni 0Ei"/>
    </vehicle>
    <vehicle id="210" depart="110.00" departLane="best" departPos="random" departSpeed="max">
        <route edges="2Si 2Wo"/>
    </vehicle>
    <vehicle id="214" depart="114.00" departLane="best" departPos="random" departSpeed="max">
        <route edges="0Wi 0No"/>
    </vehicle>
    <vehicle id="217" depart="115.00" departLane="best" departPos="random" departSpeed="max">
        <route edges="2Wi 3Wi 3Eo"/>
    </vehicle>
    <vehicle id="218" depart="115.00" departLane="best" departPos="random" departSpeed="max">
        <route edges="1Ni 3Ni 2Ei 2Wo"/>
    </vehicle>
    <vehicle id="221" depart="118.00" departLane="best" departPos="random" departSpeed="max">
        <route edges="3Ni 2Ei 0Si"/>
    </vehicle>
    <vehicle id="222" depart="119.00" departLane="best" departPos="random" departSpeed="max">
        <route edges="2Ei 0Si"/>
    </vehicle>
    <vehicle id="223" depart="120.00" departLane="best" departPos="random" departSpeed="max">
        <route edges="2Ei 0Si 1Wi 3Ni"/>
    </vehicle>
    <vehicle id="225" depart="121.00" departLane="best" departPos="random" departSpeed="max">
        <route edges="1Ei 3Ni"/>
    </vehicle>
    <vehicle id="226" depart="121.00" departLane="best" departPos="random" departSpeed="max">
        <route edges="1Wi 3Ni 2Ei 2Wo"/>
    </vehicle>
    <vehicle id="228" depart="124.00" departLane="best" departPos="random" departSpeed="max">
        <route edges="1Si 0Ei"/>
    </vehicle>
    <vehicle id="231" depart="125.00" departLane="best" departPos="random" departSpeed="max">
        <route edges="3Si 1Si 0Ei 2Ni 3Wi"/>
    </vehicle>
    <vehicle id="234" depart="128.00" departLane="best" departPos="random" departSpeed="max">
        <route edges="2Si 3Wi 1Si 0Ei 2Ni"/>
    </vehicle>
    <vehicle id="239" depart="130.00" departLane="best" departPos="random" departSpeed="max">
        <route edges="1Ni 3Ni 3Eo"/>
    </vehicle>
    <vehicle id="240" depart="130.00" departLane="best" departPos="random" departSpeed="max">
        <route edges="0Ni 2Ni"/>
    </vehicle>
    <vehicle id="243" depart="132.00" departLane="best" departPos="random" departSpeed="max">
        <route edges="2Wi 2So"/>
    </vehicle>
    <vehicle id="248" depart="135.00" departLane="best" departPos="random" departSpeed="max">
        <route edges="1Wi 3Ni 3So"/>
    </vehicle>
    <vehicle id="249" depart="136.00" departLane="best" departPos="random" departSpeed="max">
        <route edges="1Ni 0Ei 0Wo"/>
    </vehicle>
    <vehicle id="251" depart="136.00" departLane="best" departPos="random" departSpeed="max">
        <route edges="1Ni 0Ei 2Ni 3Wi"/>
    </vehicle>
    <vehicle id="252" depart="137.00" departLane="best" departPos="random" departSpeed="max">
        <route edges="2Si 3Wi 1Si 0Ei 2Ni"/>
    </vehicle>
    <vehicle id="253" depart="137.00" departLane="best" departPos="random" departSpeed="max">
        <route edges="3Wi 1Si 0Ei 2Ni 2Wo"/>
    </vehicle>
    <vehicle id="258" depart="139.00" departLane="best" departPos="random" departSpeed="max">
        <route edges="0Wi 2Ni 3Wi 1Si 0Ei"/>
    </vehicle>
    <vehicle id="259" depart="139.00" departLane="best" departPos="random" departSpeed="max">
        <route edges="2Wi 0Si 0No"/>
    </vehicle>
    <vehicle id="260" depart="140.00" departLane="best" departPos="random" departSpeed="max">
        <route edges="1Ei 0Ei 2Ni 3Wi"/>
    </vehicle>
    <vehicle id="261" depart="140.00" departLane="best" departPos="random" departSpeed="max">
        <route edges="1Ni 3Ni 2Ei 0Si 1Wi 1No"/>
    </vehicle>
    <vehicle id="262" depart="140.00" departLane="best" departPos="random" departSpeed="max">
        <route edges="1Si"/>
    </vehicle>
    <vehicle id="265" depart="141.00" departLane="best" departPos="random" departSpeed="max">
        <route edges="0Wi 2Ni 2Wo"/>
    </vehicle>
    <vehicle id="266" depart="142.00" departLane="best" departPos="random" departSpeed="max">
        <route edges="3Si 1Si 1No"/>
    </vehicle>
    <vehicle id="269" depart="143.00" departLane="best" departPos="random" departSpeed="max">
        <route edges="0Ni 1Wi 1No"/>
    </vehicle>
    <vehicle id="273" depart="145.00" departLane="best" departPos="random" departSpeed="max">
        <route edges="3Ni 3So"/>
    </vehicle>
    <vehicle id="274" depart="145.00" departLane="best" departPos="random" departSpeed="max">
        <route edges="3Wi 1Si 1Eo"/>
    </vehicle>
    <vehicle id="278" depart="147.00" departLane="best" departPos="random" departSpeed="max">
        <route edges="0Si"/>
    </vehicle>
    <vehicle id="279" depart="147.00" departLane="best" departPos="random" departSpeed="max">
        <route edges="3Si 1Si 0Ei"/>
    </vehicle>
    <vehicle id="280" depart="148.00" departLane="best" departPos="random" departSpeed="max">
        <route edges="3Si 2Ei 0Si 1Wi 3Ni 3So"/>
    </vehicle>
    <vehicle id="281" depart="148.00" departLane="best" departPos="random" departSpeed="max">
        <route edges="1Ni"/>
    </vehicle>
    <vehicle id="282" depart="150.00" departLane="best" departPos="random" departSpeed="max">
        <route edges="3Si 1Si 0Ei"/>
    </vehicle>
    <vehicle id="284" depart="151.00" departLane="best" departPos="random" departSpeed="max">
        <route edges="0Ni 2Ni 2Wo"/>
    </vehicle>
    <vehicle id="287" depart="152.00" departLane="best" departPos="random" departSpeed="max">
        <route edges="1Si 0Ei 2Ni 3Wi"/>
    </vehicle>
    <vehicle id="289" depart="152.00" departLane="best" departPos="random" departSpeed="max">
        <route edges="3Ei 1Si 1No"/>
    </vehicle>
    <vehicle id="292" depart="152.00" departLane="best" departPos="random" departSpeed="max">
        <route edges="0Ei 2Ni 3Wi 1Si"/>
    </vehicle>
    <vehicle id="294" depart="153.00" departLane="best" departPos="random" departSpeed="max">
        <route edges="1Ei 3Ni 2Ei 2Wo"/>
    </vehicle>
    <vehicle id="295" depart="154.00" departLane="best" departPos="random" departSpeed="max">
        <route edges="1Ni 3Ni 2Ei 0Si"/>
    </vehicle>
    <vehicle id="297" depart="156.00" departLane="best" departPos="random" departSpeed="max">
        <route edges="3Si 2Ei 2So"/>
    </vehicle>
    <vehicle id="298" depart="156.00" departLane="best" departPos="random" departSpeed="max">
        <route edges="0Wi 1Wi 1No"/>
    </vehicle>
    <vehicle id="300" depart="157.00" departLane="best" departPos="random" departSpeed="max">
        <route edges="3Wi 3So"/>
    </vehicle>
    <vehicle id="302" depart="160.00" departLane="best" departPos="random" departSpeed="max">
        <route edges="0Ni 2Ni 3Wi"/>
    </vehicle>
    <vehicle id="303" depart="160.00" departLane="best" departPos="random" departSpeed="max">
        <route edges="0Si 1Wi 3Ni 3Eo"/>
    </vehicle>
    <vehicle id="304" depart="160.00" departLane="best" departPos="random" departSpeed="max">
        <route edges="0Ei"/>
    </vehicle>
    <vehicle id="306" depart="161.00" departLane="best" departPos="random" departSpeed="max">
        <route edges="0Wi 1Wi"/>
    </vehicle>
    <vehicle id="307" depart="162.00" departLane="best" departPos="random" departSpeed="max">
        <route edges="2Wi 0Si"/>
    </vehicle>
    <vehicle id="308" depart="162.00" departLane="best" departPos="random" departSpeed="max">
        <route edges="0Si 1Wi 1No"/>
    </vehicle>
    <vehicle id="309" depart="162.00" departLane="best" departPos="random" departSpeed="max">
        <route edges="0Wi 2Ni 3Wi 3Eo"/>
    </vehicle>
    <vehicle id="312" depart="163.00" departLane="best" departPos="random" departSpeed="max">
        <route edges="1Ni 3Ni 2Ei 0Si 1Wi"/>
    </vehicle>
    <vehicle id="313" depart="164.00" departLane="best" departPos="random" departSpeed="max">
        <route edges="3Si 2Ei 0Si 1Wi 3Ni 3So"/>
    </vehicle>
    <vehicle id="316" depart="166.00" departLane="best" departPos="random" departSpeed="max">
        <route edges="3Ei 1Si 0Ei 2Ni"/>
    </vehicle>
    <vehicle id="318" depart="167.00" departLane="best" departPos="random" departSpeed="max">
        <route edges="2Si 0Si 1Wi"/>
    </vehicle>
    <vehicle id="319" depart="167.00" departLane="best" departPos="random" departSpeed="max">
        <route edges="1Si 0Ei 2Ni 2So"/>
    </vehicle>
    <vehicle id="320" depart="168.00" departLane="best" departPos="random" departSpeed="max">
        <route edges="3Si"/>
    </vehicle>
    <vehicle id="323" depart="168.00" departLane="best" departPos="random" departSpeed="max">
        <route edges="3Wi 1Si 0Ei 2Ni 2So"/>
    </vehicle>
    <vehicle id="325" depart="169.00" departLane="best" departPos="random" departSpeed="max">
        <route edges="3Ei 2Ei 2So"/>
    </vehicle>
    <vehicle id="327" depart="170.00" departLane="best" departPos="random" departSpeed="max">
        <route edges="2Ni 3Wi 1Si 0Ei"/>
    </vehicle>
    <vehicle id="330" depart="171.00" departLane="best" departPos="random" departSpeed="max">
        <route edges="2Wi 3Wi 1Si 0Ei 2Ni"/>
    </vehicle>
    <vehicle id="331" depart="172.00" departLane="best" departPos="random" departSpeed="max">
        <route edges="1Ni"/>
    </vehicle>
    <vehicle id="332" depart="172.00" departLane="best" departPos="random" departSpeed="max">
        <route edges="2Ni 3Wi 3Eo"/>
    </vehicle>
    <vehicle id="333" depart="173.00" departLane="best" departPos="random" departSpeed="max">
        <route edges="0Wi 2Ni 2So"/>
    </vehicle>
    <vehicle id="336" depart="173.00" departLane="best" departPos="random" departSpeed="max">
        <route edges="0Ei 2Ni 2Wo"/>
    </vehicle>
    <vehicle id="337" depart="173.00" departLane="best" departPos="random" departSpeed="max">
        <route edges="3Wi 1Si 1No"/>
    </vehicle>
    <vehicle id="338" depart="174.00" departLane="best" departPos="random" departSpeed="max">
        <route edges="0Wi 2Ni"/>
    </vehicle>
    <vehicle id="340" depart="174.00" departLane="best" departPos="random" departSpeed="max">
        <route edges="3Ei 1Si"/>
    </vehicle>
    <vehicle id="345" depart="176.00" departLane="best" departPos="random" departSpeed="max">
        <route edges="1Wi 3Ni 3Eo"/>
    </vehicle>
    <vehicle id="349" depart="179.00" departLane="best" departPos="random" departSpeed="max">
        <route edges="2Ni"/>
    </vehicle>
    <vehicle id="351" depart="180.00" departLane="best" departPos="random" departSpeed="max">
        <route edges="3Ni 2Ei 0Si 1Wi"/>
    </vehicle>
    <vehicle id="356" depart="182.00" departLane="best" departPos="random" departSpeed="max">
        <route edges="0Ei"/>
    </vehicle>
    <vehicle id="359" depart="184.00" departLane="best" departPos="random" departSpeed="max">
        <route edges="2Ei"/>
    </vehicle>
    <vehicle id="360" depart="184.00" departLane="best" departPos="random" departSpeed="max">
        <route edges="2Wi 2So"/>
    </vehicle>
    <vehicle id="361" depart="184.00" departLane="best" departPos="random" departSpeed="max">
        <route edges="3Wi 1Si 1No"/>
    </vehicle>
    <vehicle id="366" depart="186.00" departLane="best" departPos="random" departSpeed="max">
        <route edges="3Ei 1Si 0Ei 2Ni"/>
    </vehicle>
    <vehicle id="367" depart="186.00" departLane="best" departPos="random" departSpeed="max">
        <route edges="2Wo"/>
    </vehicle>
    <vehicle id="368" depart="186.00" departLane="best" departPos="random" departSpeed="max">
        <route edges="3Wi 1Si 0Ei 0No"/>
    </vehicle>
    <vehicle id="373" depart="189.00" departLane="best" departPos="random" departSpeed="max">
        <route edges="3Si 1Si 0Ei 0Wo"/>
    </vehicle>
    <vehicle id="374" depart="190.00" departLane="best" departPos="random" departSpeed="max">
        <route edges="2Si 0Si 0Wo"/>
    </vehicle>
    <vehicle id="375" depart="191.00" departLane="best" departPos="random" departSpeed="max">
        <route edges="0Wi 1Wi 1No"/>
    </vehicle>
    <vehicle id="377" depart="192.00" departLane="best" departPos="random" departSpeed="max">
        <route edges="0Si 1Wi"/>
    </vehicle>
    <vehicle id="378" depart="193.00" departLane="best" departPos="random" departSpeed="max">
        <route edges="3Ei 2Ei 0Si 1Wi"/>
    </vehicle>
    <vehicle id="381" depart="194.00" departLane="best" departPos="random" departSpeed="max">
        <route edges="1Ei 0Ei 0Wo"/>
    </vehicle>
    <vehicle id="385" depart="196.00" departLane="best" departPos="random" departSpeed="max">
        <route edges="1Ni 0Ei 2Ni 2So"/>
    </vehicle>
    <vehicle id="386" depart="196.00" departLane="best" departPos="random" departSpeed="max">
        <route edges="0Ni 1Wi 3Ni 2Ei 0Si 0No"/>
    </vehicle>
    <vehicle id="387" depart="197.00" departLane="best" departPos="random" departSpeed="max">
        <route edges="2Ni 3Wi 1Si 0Ei 0Wo"/>
    </vehicle>
    <vehicle id="392" depart="201.00" departLane="best" departPos="random" departSpeed="max">
        <route edges="2Si 3Wi"/>
    </vehicle>
    <vehicle id="396" depart="204.00" departLane="best" departPos="random" departSpeed="max">
        <route edges="2Wi 0Si 1Wi 3Ni 2Ei"/>
    </vehicle>
    <vehicle id="398" depart="205.00" departLane="best" departPos="random" departSpeed="max">
        <route edges="1Ni"/>
    </vehicle>
    <vehicle id="400" depart="206.00" departLane="best" departPos="random" departSpeed="max">
        <route edges="3Ei 1Si 0Ei"/>
    </vehicle>
    <vehicle id="401" depart="207.00" departLane="best" departPos="random" departSpeed="max">
        <route edges="1Ni"/>
    </vehicle>
    <vehicle id="403" depart="207.00" departLane="best" departPos="random" departSpeed="max">
        <route edges="1Si 0Ei 0Wo"/>
    </vehicle>
    <vehicle id="408" depart="209.00" departLane="best" departPos="random" departSpeed="max">
        <route edges="1Ni 3Ni 2Ei 2Wo"/>
    </vehicle>
    <vehicle id="409" depart="209.00" departLane="best" departPos="random" departSpeed="max">
        <route edges="0Wi 2Ni 3Wi 1Si"/>
    </vehicle>
    <vehicle id="412" depart="211.00" departLane="best" departPos="random" departSpeed="max">
        <route edges="3Si 2Ei 0Si 0No"/>
    </vehicle>
    <vehicle id="413" depart="211.00" departLane="best" departPos="random" departSpeed="max">
        <route edges="2Ei 0Si 1Wi 3Ni 3So"/>
    </vehicle>
    <vehicle id="416" depart="211.00" departLane="best" departPos="random" departSpeed="max">
        <route edges="3Ei 1Si"/>
    </vehicle>
    <vehicle id="417" depart="212.00" departLane="best" departPos="random" departSpeed="max">
        <route edges="3Ni 2Ei 0Si 1Wi"/>
    </vehicle>
    <vehicle id="419" depart="213.00" departLane="best" departPos="random" departSpeed="max">
        <route edges="1Ei 3Ni 3So"/>
    </vehicle>
    <vehicle id="422" depart="215.00" departLane="best" departPos="random" departSpeed="max">
        <route edges="0Ni 1Wi 1No"/>
    </vehicle>
    <vehicle id="423" depart="215.00" departLane="best" departPos="random" departSpeed="max">
        <route edges="3Si 2Ei"/>
    </vehicle>
    <vehicle id="426" depart="216.00" departLane="best" departPos="random" departSpeed="max">
        <route edges="2Ni 2Wo"/>
    </vehicle>
    <vehicle id="428" depart="217.00" departLane="best" departPos="random" departSpeed="max">
        <route edges="3Ni 3Eo"/>
    </vehicle>
    <vehicle id="430" depart="217.00" departLane="best" departPos="random" departSpeed="max">
        <route edges="3Si 1Si 1Eo"/>
    </vehicle>
    <vehicle id="435" depart="220.00" departLane="best" departPos="random" departSpeed="max">
        <route edges="2Si 0Si 1Wi 3Ni 2Ei"/>
    </vehicle>
    <vehicle id="436" depart="220.00" departLane="best" departPos="random" departSpeed="max">
        <route edges="2Si 3Wi 3So"/>
    </vehicle>
    <vehicle id="437" depart="221.00" departLane="best" departPos="random" departSpeed="max">
        <route edges="1Ei 3Ni 2Ei 0Si 1Wi"/>
    </vehicle>
    <vehicle id="439" depart="222.00" departLane="best" departPos="random" departSpeed="max">
        <route edges="3Ni 2Ei 2So"/>
    </vehicle>
    <vehicle id="441" depart="224.00" departLane="best" departPos="random" departSpeed="max">
        <route edges="0Ni 0Wo"/>
    </vehicle>
    <vehicle id="442" depart="224.00" departLane="best" departPos="random" departSpeed="max">
        <route edges="1Ei 3Ni 2Ei 0Si 1Wi"/>
    </vehicle>
    <vehicle id="444" depart="226.00" departLane="best" departPos="random" departSpeed="max">
        <route edges="1Ni 3Ni 2Ei 0Si"/>
    </vehicle>