<?xml version="1.0" ?>
<routes xmlns:xsi="http://www.w3.org/2001/XMLSchema-instance" xsi:noNamespaceSchemaLocation="http://sumo.dlr.de/xsd/routes_file.xsd">
  <vType id="car" accel="2.6" decel="4.5" sigma="0.5" length="5" minGap="2.5" maxSpeed="13.9" guiShape="passenger"/>
  <vehicle id="veh_0000" type="car" depart="0.0" departLane="best" departPos="random" departSpeed="max">
    <route edges="0Wi 0So"/>
  </vehicle>
  <vehicle id="veh_0001" type="car" depart="3.0" departLane="best" departPos="random" departSpeed="max">
    <route edges="0Ei 0No"/>
  </vehicle>
  <vehicle id="veh_0002" type="car" depart="6.01" departLane="best" departPos="random" departSpeed="max">
    <route edges="0Ei 0So"/>
  </vehicle>
  <vehicle id="veh_0003" type="car" depart="9.01" departLane="best" departPos="random" departSpeed="max">
    <route edges="0Ei 0So"/>
  </vehicle>
  <vehicle id="veh_0004" type="car" depart="12.01" departLane="best" departPos="random" departSpeed="max">
    <route edges="0Ei 0So"/>
  </vehicle>
  <vehicle id="veh_0005" type="car" depart="15.01" departLane="best" departPos="random" departSpeed="max">
    <route edges="0Si 0Eo"/>
  </vehicle>
  <vehicle id="veh_0006" type="car" depart="18.02" departLane="best" departPos="random" departSpeed="max">
    <route edges="0Ei 0No"/>
  </vehicle>
  <vehicle id="veh_0007" type="car" depart="21.02" departLane="best" departPos="random" departSpeed="max">
    <route edges="0Si 0Eo"/>
  </vehicle>
  <vehicle id="veh_0008" type="car" depart="24.02" departLane="best" departPos="random" departSpeed="max">
    <route edges="0Ei 0No"/>
  </vehicle>
  <vehicle id="veh_0009" type="car" depart="27.03" departLane="best" departPos="random" departSpeed="max">
    <route edges="0Si 0Wo"/>
  </vehicle>
  <vehicle id="veh_0010" type="car" depart="30.03" departLane="best" departPos="random" departSpeed="max">
    <route edges="0Ni 0Wo"/>
  </vehicle>
  <vehicle id="veh_0011" type="car" depart="33.03" departLane="best" departPos="random" departSpeed="max">
    <route edges="0Wi 0So"/>
  </vehicle>
  <vehicle id="veh_0012" type="car" depart="36.03" departLane="best" departPos="random" departSpeed="max">
    <route edges="0Wi 0Eo"/>
  </vehicle>
  <vehicle id="veh_0013" type="car" depart="39.04" departLane="best" departPos="random" departSpeed="max">
    <route edges="0Si 0Eo"/>
  </vehicle>
  <vehicle id="veh_0014" type="car" depart="42.04" departLane="best" departPos="random" departSpeed="max">
    <route edges="0Si 0No"/>
  </vehicle>
  <vehicle id="veh_0015" type="car" depart="45.04" departLane="best" departPos="random" departSpeed="max">
    <route edges="0Ei 0Wo"/>
  </vehicle>
  <vehicle id="veh_0016" type="car" depart="48.05" departLane="best" departPos="random" departSpeed="max">
    <route edges="0Si 0Wo"/>
  </vehicle>
  <vehicle id="veh_0017" type="car" depart="51.05" departLane="best" departPos="random" departSpeed="max">
    <route edges="0Si 0Wo"/>
  </vehicle>
  <vehicle id="veh_0018" type="car" depart="54.05" departLane="best" departPos="random" departSpeed="max">
    <route edges="0Ni 0Wo"/>
  </vehicle>
  <vehicle id="veh_0019" type="car" depart="57.06" departLane="best" departPos="random" departSpeed="max">
    <route edges="0Ei 0No"/>
  </vehicle>
  <vehicle id="veh_0020" type="car" depart="60.06" departLane="best" departPos="random" departSpeed="max">
    <route edges="0Wi 0Eo"/>
  </vehicle>
  <vehicle id="veh_0021" type="car" depart="63.06" departLane="best" departPos="random" departSpeed="max">
    <route edges="0Si 0No"/>
  </vehicle>
  <vehicle id="veh_0022" type="car" depart="66.06" departLane="best" departPos="random" departSpeed="max">
    <route edges="0Ni 0Eo"/>
  </vehicle>
  <vehicle id="veh_0023" type="car" depart="69.07" departLane="best" departPos="random" departSpeed="max">
    <route edges="0Ni 0Wo"/>
  </vehicle>
  <vehicle id="veh_0024" type="car" depart="72.07" departLane="best" departPos="random" departSpeed="max">
    <route edges="0Si 0Wo"/>
  </vehicle>
  <vehicle id="veh_0025" type="car" depart="75.07" departLane="best" departPos="random" departSpeed="max">
    <route edges="0Wi 0No"/>
  </vehicle>
  <vehicle id="veh_0026" type="car" depart="78.08" departLane="best" departPos="random" departSpeed="max">
    <route edges="0Si 0Wo"/>
  </vehicle>
  <vehicle id="veh_0027" type="car" depart="81.08" departLane="best" departPos="random" departSpeed="max">
    <route edges="0Ei 0No"/>
  </vehicle>
  <vehicle id="veh_0028" type="car" depart="84.08" departLane="best" departPos="random" departSpeed="max">
    <route edges="0Ni 0Eo"/>
  </vehicle>
  <vehicle id="veh_0029" type="car" depart="87.08" departLane="best" departPos="random" departSpeed="max">
    <route edges="0Si 0Wo"/>
  </vehicle>
  <vehicle id="veh_0030" type="car" depart="90.09" departLane="best" departPos="random" departSpeed="max">
    <route edges="0Ei 0Wo"/>
  </vehicle>
  <vehicle id="veh_0031" type="car" depart="93.09" departLane="best" departPos="random" departSpeed="max">
    <route edges="0Si 0Wo"/>
  </vehicle>
  <vehicle id="veh_0032" type="car" depart="96.09" departLane="best" departPos="random" departSpeed="max">
    <route edges="0Si 0Eo"/>
  </vehicle>
  <vehicle id="veh_0033" type="car" depart="99.1" departLane="best" departPos="random" departSpeed="max">
    <route edges="0Ni 0Eo"/>
  </vehicle>
  <vehicle id="veh_0034" type="car" depart="102.1" departLane="best" departPos="random" departSpeed="max">
    <route edges="0Si 0No"/>
  </vehicle>
  <vehicle id="veh_0035" type="car" depart="105.1" departLane="best" departPos="random" departSpeed="max">
    <route edges="0Si 0No"/>
  </vehicle>
  <vehicle id="veh_0036" type="car" depart="108.1" departLane="best" departPos="random" departSpeed="max">
    <route edges="0Ei 0No"/>
  </vehicle>
  <vehicle id="veh_0037" type="car" depart="111.11" departLane="best" departPos="random" departSpeed="max">
    <route edges="0Ni 0Wo"/>
  </vehicle>
  <vehicle id="veh_0038" type="car" depart="114.11" departLane="best" departPos="random" departSpeed="max">
    <route edges="0Wi 0No"/>
  </vehicle>
  <vehicle id="veh_0039" type="car" depart="117.11" departLane="best" departPos="random" departSpeed="max">
    <route edges="0Ei 0Wo"/>
  </vehicle>
  <vehicle id="veh_0040" type="car" depart="120.12" departLane="best" departPos="random" departSpeed="max">
    <route edges="0Si 0Eo"/>
  </vehicle>
  <vehicle id="veh_0041" type="car" depart="123.12" departLane="best" departPos="random" departSpeed="max">
    <route edges="0Ei 0No"/>
  </vehicle>
  <vehicle id="veh_0042" type="car" depart="126.12" departLane="best" departPos="random" departSpeed="max">
    <route edges="0Ni 0Eo"/>
  </vehicle>
  <vehicle id="veh_0043" type="car" depart="129.12" departLane="best" departPos="random" departSpeed="max">
    <route edges="0Ei 0So"/>
  </vehicle>
  <vehicle id="veh_0044" type="car" depart="132.13" departLane="best" departPos="random" departSpeed="max">
    <route edges="0Ei 0No"/>
  </vehicle>
  <vehicle id="veh_0045" type="car" depart="135.13" departLane="best" departPos="random" departSpeed="max">
    <route edges="0Wi 0So"/>
  </vehicle>
  <vehicle id="veh_0046" type="car" depart="138.13" departLane="best" departPos="random" departSpeed="max">
    <route edges="0Wi 0Eo"/>
  </vehicle>
  <vehicle id="veh_0047" type="car" depart="141.14" departLane="best" departPos="random" departSpeed="max">
    <route edges="0Ei 0No"/>
  </vehicle>
  <vehicle id="veh_0048" type="car" depart="144.14" departLane="best" departPos="random" departSpeed="max">
    <route edges="0Ni 0So"/>
  </vehicle>
  <vehicle id="veh_0049" type="car" depart="147.14" departLane="best" departPos="random" departSpeed="max">
    <route edges="0Ei 0So"/>
  </vehicle>
  <vehicle id="veh_0050" type="car" depart="150.15" departLane="best" departPos="random" departSpeed="max">
    <route edges="0Si 0No"/>
  </vehicle>
  <vehicle id="veh_0051" type="car" depart="153.15" departLane="best" departPos="random" departSpeed="max">
    <route edges="0Wi 0No"/>
  </vehicle>
  <vehicle id="veh_0052" type="car" depart="156.15" departLane="best" departPos="random" departSpeed="max">
    <route edges="0Ni 0Eo"/>
  </vehicle>
  <vehicle id="veh_0053" type="car" depart="159.15" departLane="best" departPos="random" departSpeed="max">
    <route edges="0Ei 0No"/>
  </vehicle>
  <vehicle id="veh_0054" type="car" depart="162.16" departLane="best" departPos="random" departSpeed="max">
    <route edges="0Ei 0Wo"/>
  </vehicle>
  <vehicle id="veh_0055" type="car" depart="165.16" departLane="best" departPos="random" departSpeed="max">
    <route edges="0Ni 0Eo"/>
  </vehicle>
  <vehicle id="veh_0056" type="car" depart="168.16" departLane="best" departPos="random" departSpeed="max">
    <route edges="0Wi 0Eo"/>
  </vehicle>
  <vehicle id="veh_0057" type="car" depart="171.17" departLane="best" departPos="random" departSpeed="max">
    <route edges="0Wi 0Eo"/>
  </vehicle>
  <vehicle id="veh_0058" type="car" depart="174.17" departLane="best" departPos="random" departSpeed="max">
    <route edges="0Ei 0Wo"/>
  </vehicle>
  <vehicle id="veh_0059" type="car" depart="177.17" departLane="best" departPos="random" departSpeed="max">
    <route edges="0Si 0No"/>
  </vehicle>
  <vehicle id="veh_0060" type="car" depart="180.17" departLane="best" departPos="random" departSpeed="max">
    <route edges="0Si 0Wo"/>
  </vehicle>
  <vehicle id="veh_0061" type="car" depart="183.18" departLane="best" departPos="random" departSpeed="max">
    <route edges="0Ei 0So"/>
  </vehicle>
  <vehicle id="veh_0062" type="car" depart="186.18" departLane="best" departPos="random" departSpeed="max">
    <route edges="0Ei 0So"/>
  </vehicle>
  <vehicle id="veh_0063" type="car" depart="189.18" departLane="best" departPos="random" departSpeed="max">
    <route edges="0Ni 0Wo"/>
  </vehicle>
  <vehicle id="veh_0064" type="car" depart="192.19" departLane="best" departPos="random" departSpeed="max">
    <route edges="0Wi 0No"/>
  </vehicle>
  <vehicle id="veh_0065" type="car" depart="195.19" departLane="best" departPos="random" departSpeed="max">
    <route edges="0Si 0No"/>
  </vehicle>
  <vehicle id="veh_0066" type="car" depart="198.19" departLane="best" departPos="random" departSpeed="max">
    <route edges="0Si 0Wo"/>
  </vehicle>
  <vehicle id="veh_0067" type="car" depart="201.19" departLane="best" departPos="random" departSpeed="max">
    <route edges="0Ei 0Wo"/>
  </vehicle>
  <vehicle id="veh_0068" type="car" depart="204.2" departLane="best" departPos="random" departSpeed="max">
    <route edges="0Wi 0Eo"/>
  </vehicle>
  <vehicle id="veh_0069" type="car" depart="207.2" departLane="best" departPos="random" departSpeed="max">
    <route edges="0Ei 0Wo"/>
  </vehicle>
  <vehicle id="veh_0070" type="car" depart="210.2" departLane="best" departPos="random" departSpeed="max">
    <route edges="0Si 0No"/>
  </vehicle>
  <vehicle id="veh_0071" type="car" depart="213.21" departLane="best" departPos="random" departSpeed="max">
    <route edges="0Ei 0So"/>
  </vehicle>
  <vehicle id="veh_0072" type="car" depart="216.21" departLane="best" departPos="random" departSpeed="max">
    <route edges="0Si 0Eo"/>
  </vehicle>
  <vehicle id="veh_0073" type="car" depart="219.21" departLane="best" departPos="random" departSpeed="max">
    <route edges="0Wi 0So"/>
  </vehicle>
  <vehicle id="veh_0074" type="car" depart="222.21" departLane="best" departPos="random" departSpeed="max">
    <route edges="0Ei 0So"/>
  </vehicle>
  <vehicle id="veh_0075" type="car" depart="225.22" departLane="best" departPos="random" departSpeed="max">
    <route edges="0Wi 0Eo"/>
  </vehicle>
  <vehicle id="veh_0076" type="car" depart="228.22" departLane="best" departPos="random" departSpeed="max">
    <route edges="0Ni 0Eo"/>
  </vehicle>
  <vehicle id="veh_0077" type="car" depart="231.22" departLane="best" departPos="random" departSpeed="max">
    <route edges="0Ei 0No"/>
  </vehicle>
  <vehicle id="veh_0078" type="car" depart="234.23" departLane="best" departPos="random" departSpeed="max">
    <route edges="0Si 0No"/>
  </vehicle>
  <vehicle id="veh_0079" type="car" depart="237.23" departLane="best" departPos="random" departSpeed="max">
    <route edges="0Si 0Eo"/>
  </vehicle>
  <vehicle id="veh_0080" type="car" depart="240.23" departLane="best" departPos="random" departSpeed="max">
    <route edges="0Ei 0Wo"/>
  </vehicle>
  <vehicle id="veh_0081" type="car" depart="243.24" departLane="best" departPos="random" departSpeed="max">
    <route edges="0Ni 0Eo"/>
  </vehicle>
  <vehicle id="veh_0082" type="car" depart="246.24" departLane="best" departPos="random" departSpeed="max">
    <route edges="0Ei 0So"/>
  </vehicle>
  <vehicle id="veh_0083" type="car" depart="249.24" departLane="best" departPos="random" departSpeed="max">
    <route edges="0Si 0Eo"/>
  </vehicle>
  <vehicle id="veh_0084" type="car" depart="252.24" departLane="best" departPos="random" departSpeed="max">
    <route edges="0Si 0Wo"/>
  </vehicle>
  <vehicle id="veh_0085" type="car" depart="255.25" departLane="best" departPos="random" departSpeed="max">
    <route edges="0Wi 0So"/>
  </vehicle>
  <vehicle id="veh_0086" type="car" depart="258.25" departLane="best" departPos="random" departSpeed="max">
    <route edges="0Wi 0No"/>
  </vehicle>
  <vehicle id="veh_0087" type="car" depart="261.25" departLane="best" departPos="random" departSpeed="max">
    <route edges="0Ei 0Wo"/>
  </vehicle>
  <vehicle id="veh_0088" type="car" depart="264.26" departLane="best" departPos="random" departSpeed="max">
    <route edges="0Ei 0Wo"/>
  </vehicle>
  <vehicle id="veh_0089" type="car" depart="267.26" departLane="best" departPos="random" departSpeed="max">
    <route edges="0Si 0Eo"/>
  </vehicle>
  <vehicle id="veh_0090" type="car" depart="270.26" departLane="best" departPos="random" departSpeed="max">
    <route edges="0Wi 0No"/>
  </vehicle>
  <vehicle id="veh_0091" type="car" depart="273.26" departLane="best" departPos="random" departSpeed="max">
    <route edges="0Wi 0No"/>
  </vehicle>
  <vehicle id="veh_0092" type="car" depart="276.27" departLane="best" departPos="random" departSpeed="max">
    <route edges="0Ei 0Wo"/>
  </vehicle>
  <vehicle id="veh_0093" type="car" depart="279.27" departLane="best" departPos="random" departSpeed="max">
    <route edges="0Si 0Wo"/>
  </vehicle>
  <vehicle id="veh_0094" type="car" depart="282.27" departLane="best" departPos="random" departSpeed="max">
    <route edges="0Ni 0So"/>
  </vehicle>
  <vehicle id="veh_0095" type="car" depart="285.28" departLane="best" departPos="random" departSpeed="max">
    <route edges="0Si 0Eo"/>
  </vehicle>
  <vehicle id="veh_0096" type="car" depart="288.28" departLane="best" departPos="random" departSpeed="max">
    <route edges="0Ei 0No"/>
  </vehicle>
  <vehicle id="veh_0097" type="car" depart="291.28" departLane="best" departPos="random" departSpeed="max">
    <route edges="0Ni 0So"/>
  </vehicle>
  <vehicle id="veh_0098" type="car" depart="294.28" departLane="best" departPos="random" departSpeed="max">
    <route edges="0Si 0Eo"/>
  </vehicle>
  <vehicle id="veh_0099" type="car" depart="297.29" departLane="best" departPos="random" departSpeed="max">
    <route edges="0Ei 0Wo"/>
  </vehicle>
  <vehicle id="veh_0100" type="car" depart="300.29" departLane="best" departPos="random" departSpeed="max">
    <route edges="0Wi 0Eo"/>
  </vehicle>
  <vehicle id="veh_0101" type="car" depart="303.29" departLane="best" departPos="random" departSpeed="max">
    <route edges="0Ei 0Wo"/>
  </vehicle>
  <vehicle id="veh_0102" type="car" depart="306.3" departLane="best" departPos="random" departSpeed="max">
    <route edges="0Ni 0So"/>
  </vehicle>
  <vehicle id="veh_0103" type="car" depart="309.3" departLane="best" departPos="random" departSpeed="max">
    <route edges="0Si 0No"/>
  </vehicle>
  <vehicle id="veh_0104" type="car" depart="312.3" departLane="best" departPos="random" departSpeed="max">
    <route edges="0Ei 0So"/>
  </vehicle>
  <vehicle id="veh_0105" type="car" depart="315.3" departLane="best" departPos="random" departSpeed="max">
    <route edges="0Ei 0No"/>
  </vehicle>
  <vehicle id="veh_0106" type="car" depart="318.31" departLane="best" departPos="random" departSpeed="max">
    <route edges="0Si 0Wo"/>
  </vehicle>
  <vehicle id="veh_0107" type="car" depart="321.31" departLane="best" departPos="random" departSpeed="max">
    <route edges="0Ei 0So"/>
  </vehicle>
  <vehicle id="veh_0108" type="car" depart="324.31" departLane="best" departPos="random" departSpeed="max">
    <route edges="0Ni 0Wo"/>
  </vehicle>
  <vehicle id="veh_0109" type="car" depart="327.32" departLane="best" departPos="random" departSpeed="max">
    <route edges="0Ni 0So"/>
  </vehicle>
  <vehicle id="veh_0110" type="car" depart="330.32" departLane="best" departPos="random" departSpeed="max">
    <route edges="0Ei 0No"/>
  </vehicle>
  <vehicle id="veh_0111" type="car" depart="333.32" departLane="best" departPos="random" departSpeed="max">
    <route edges="0Ni 0Eo"/>
  </vehicle>
  <vehicle id="veh_0112" type="car" depart="336.33" departLane="best" departPos="random" departSpeed="max">
    <route edges="0Si 0Wo"/>
  </vehicle>
  <vehicle id="veh_0113" type="car" depart="339.33" departLane="best" departPos="random" departSpeed="max">
    <route edges="0Wi 0No"/>
  </vehicle>
  <vehicle id="veh_0114" type="car" depart="342.33" departLane="best" departPos="random" departSpeed="max">
    <route edges="0Ni 0Eo"/>
  </vehicle>
  <vehicle id="veh_0115" type="car" depart="345.33" departLane="best" departPos="random" departSpeed="max">
    <route edges="0Ni 0Wo"/>
  </vehicle>
  <vehicle id="veh_0116" type="car" depart="348.34" departLane="best" departPos="random" departSpeed="max">
    <route edges="0Si 0No"/>
  </vehicle>
  <vehicle id="veh_0117" type="car" depart="351.34" departLane="best" departPos="random" departSpeed="max">
    <route edges="0Ni 0So"/>
  </vehicle>
  <vehicle id="veh_0118" type="car" depart="354.34" departLane="best" departPos="random" departSpeed="max">
    <route edges="0Ei 0No"/>
  </vehicle>
  <vehicle id="veh_0119" type="car" depart="357.35" departLane="best" departPos="random" departSpeed="max">
    <route edges="0Wi 0Eo"/>
  </vehicle>
  <vehicle id="veh_0120" type="car" depart="360.35" departLane="best" departPos="random" departSpeed="max">
    <route edges="0Wi 0No"/>
  </vehicle>
  <vehicle id="veh_0121" type="car" depart="363.35" departLane="best" departPos="random" departSpeed="max">
    <route edges="0Wi 0Eo"/>
  </vehicle>
  <vehicle id="veh_0122" type="car" depart="366.35" departLane="best" departPos="random" departSpeed="max">
    <route edges="0Wi 0No"/>
  </vehicle>
  <vehicle id="veh_0123" type="car" depart="369.36" departLane="best" departPos="random" departSpeed="max">
    <route edges="0Wi 0So"/>
  </vehicle>
  <vehicle id="veh_0124" type="car" depart="372.36" departLane="best" departPos="random" departSpeed="max">
    <route edges="0Ei 0No"/>
  </vehicle>
  <vehicle id="veh_0125" type="car" depart="375.36" departLane="best" departPos="random" departSpeed="max">
    <route edges="0Ni 0Eo"/>
  </vehicle>
  <vehicle id="veh_0126" type="car" depart="378.37" departLane="best" departPos="random" departSpeed="max">
    <route edges="0Si 0Wo"/>
  </vehicle>
  <vehicle id="veh_0127" type="car" depart="381.37" departLane="best" departPos="random" departSpeed="max">
    <route edges="0Ni 0So"/>
  </vehicle>
  <vehicle id="veh_0128" type="car" depart="384.37" departLane="best" departPos="random" departSpeed="max">
    <route edges="0Ni 0Wo"/>
  </vehicle>
  <vehicle id="veh_0129" type="car" depart="387.37" departLane="best" departPos="random" departSpeed="max">
    <route edges="0Ni 0Eo"/>
  </vehicle>
  <vehicle id="veh_0130" type="car" depart="390.38" departLane="best" departPos="random" departSpeed="max">
    <route edges="0Ni 0Eo"/>
  </vehicle>
  <vehicle id="veh_0131" type="car" depart="393.38" departLane="best" departPos="random" departSpeed="max">
    <route edges="0Ei 0No"/>
  </vehicle>
  <vehicle id="veh_0132" type="car" depart="396.38" departLane="best" departPos="random" departSpeed="max">
    <route edges="0Si 0No"/>
  </vehicle>
  <vehicle id="veh_0133" type="car" depart="399.39" departLane="best" departPos="random" departSpeed="max">
    <route edges="0Ei 0No"/>
  </vehicle>
  <vehicle id="veh_0134" type="car" depart="402.39" departLane="best" departPos="random" departSpeed="max">
    <route edges="0Wi 0So"/>
  </vehicle>
  <vehicle id="veh_0135" type="car" depart="405.39" departLane="best" departPos="random" departSpeed="max">
    <route edges="0Ni 0Eo"/>
  </vehicle>
  <vehicle id="veh_0136" type="car" depart="408.39" departLane="best" departPos="random" departSpeed="max">
    <route edges="0Ei 0So"/>
  </vehicle>
  <vehicle id="veh_0137" type="car" depart="411.4" departLane="best" departPos="random" departSpeed="max">
    <route edges="0Ei 0Wo"/>
  </vehicle>
  <vehicle id="veh_0138" type="car" depart="414.4" departLane="best" departPos="random" departSpeed="max">
    <route edges="0Si 0No"/>
  </vehicle>
  <vehicle id="veh_0139" type="car" depart="417.4" departLane="best" departPos="random" departSpeed="max">
    <route edges="0Ei 0Wo"/>
  </vehicle>
  <vehicle id="veh_0140" type="car" depart="420.41" departLane="best" departPos="random" departSpeed="max">
    <route edges="0Ni 0So"/>
  </vehicle>
  <vehicle id="veh_0141" type="car" depart="423.41" departLane="best" departPos="random" departSpeed="max">
    <route edges="0Si 0No"/>
  </vehicle>
  <vehicle id="veh_0142" type="car" depart="426.41" departLane="best" departPos="random" departSpeed="max">
    <route edges="0Ei 0No"/>
  </vehicle>
  <vehicle id="veh_0143" type="car" depart="429.42" departLane="best" departPos="random" departSpeed="max">
    <route edges="0Ni 0Wo"/>
  </vehicle>
  <vehicle id="veh_0144" type="car" depart="432.42" departLane="best" departPos="random" departSpeed="max">
    <route edges="0Ei 0So"/>
  </vehicle>
  <vehicle id="veh_0145" type="car" depart="435.42" departLane="best" departPos="random" departSpeed="max">
    <route edges="0Ni 0So"/>
  </vehicle>
  <vehicle id="veh_0146" type="car" depart="438.42" departLane="best" departPos="random" departSpeed="max">
    <route edges="0Si 0Wo"/>
  </vehicle>
  <vehicle id="veh_0147" type="car" depart="441.43" departLane="best" departPos="random" departSpeed="max">
    <route edges="0Wi 0So"/>
  </vehicle>
  <vehicle id="veh_0148" type="car" depart="444.43" departLane="best" departPos="random" departSpeed="max">
    <route edges="0Wi 0So"/>
  </vehicle>
  <vehicle id="veh_0149" type="car" depart="447.43" departLane="best" departPos="random" departSpeed="max">
    <route edges="0Wi 0Eo"/>
  </vehicle>
  <vehicle id="veh_0150" type="car" depart="450.44" departLane="best" departPos="random" departSpeed="max">
    <route edges="0Wi 0No"/>
  </vehicle>
  <vehicle id="veh_0151" type="car" depart="453.44" departLane="best" departPos="random" departSpeed="max">
    <route edges="0Ni 0Wo"/>
  </vehicle>
  <vehicle id="veh_0152" type="car" depart="456.44" departLane="best" departPos="random" departSpeed="max">
    <route edges="0Wi 0No"/>
  </vehicle>
  <vehicle id="veh_0153" type="car" depart="459.44" departLane="best" departPos="random" departSpeed="max">
    <route edges="0Ni 0Wo"/>
  </vehicle>
  <vehicle id="veh_0154" type="car" depart="462.45" departLane="best" departPos="random" departSpeed="max">
    <route edges="0Ni 0Wo"/>
  </vehicle>
  <vehicle id="veh_0155" type="car" depart="465.45" departLane="best" departPos="random" departSpeed="max">
    <route edges="0Wi 0So"/>
  </vehicle>
  <vehicle id="veh_0156" type="car" depart="468.45" departLane="best" departPos="random" departSpeed="max">
    <route edges="0Wi 0Eo"/>
  </vehicle>
  <vehicle id="veh_0157" type="car" depart="471.46" departLane="best" departPos="random" departSpeed="max">
    <route edges="0Ni 0Eo"/>
  </vehicle>
  <vehicle id="veh_0158" type="car" depart="474.46" departLane="best" departPos="random" departSpeed="max">
    <route edges="0Si 0Wo"/>
  </vehicle>
  <vehicle id="veh_0159" type="car" depart="477.46" departLane="best" departPos="random" departSpeed="max">
    <route edges="0Ei 0Wo"/>
  </vehicle>
  <vehicle id="veh_0160" type="car" depart="480.46" departLane="best" departPos="random" departSpeed="max">
    <route edges="0Ni 0Eo"/>
  </vehicle>
  <vehicle id="veh_0161" type="car" depart="483.47" departLane="best" departPos="random" departSpeed="max">
    <route edges="0Si 0No"/>
  </vehicle>
  <vehicle id="veh_0162" type="car" depart="486.47" departLane="best" departPos="random" departSpeed="max">
    <route edges="0Ei 0No"/>
  </vehicle>
  <vehicle id="veh_0163" type="car" depart="489.47" departLane="best" departPos="random" departSpeed="max">
    <route edges="0Wi 0So"/>
  </vehicle>
  <vehicle id="veh_0164" type="car" depart="492.48" departLane="best" departPos="random" departSpeed="max">
    <route edges="0Wi 0No"/>
  </vehicle>
  <vehicle id="veh_0165" type="car" depart="495.48" departLane="best" departPos="random" departSpeed="max">
    <route edges="0Ei 0Wo"/>
  </vehicle>
  <vehicle id="veh_0166" type="car" depart="498.48" departLane="best" departPos="random" departSpeed="max">
    <route edges="0Ni 0Eo"/>
  </vehicle>
  <vehicle id="veh_0167" type="car" depart="501.48" departLane="best" departPos="random" departSpeed="max">
    <route edges="0Si 0Eo"/>
  </vehicle>
  <vehicle id="veh_0168" type="car" depart="504.49" departLane="best" departPos="random" departSpeed="max">
    <route edges="0Ei 0No"/>
  </vehicle>
  <vehicle id="veh_0169" type="car" depart="507.49" departLane="best" departPos="random" departSpeed="max">
    <route edges="0Si 0Eo"/>
  </vehicle>
  <vehicle id="veh_0170" type="car" depart="510.49" departLane="best" departPos="random" departSpeed="max">
    <route edges="0Ei 0So"/>
  </vehicle>
  <vehicle id="veh_0171" type="car" depart="513.5" departLane="best" departPos="random" departSpeed="max">
    <route edges="0Wi 0No"/>
  </vehicle>
  <vehicle id="veh_0172" type="car" depart="516.5" departLane="best" departPos="random" departSpeed="max">
    <route edges="0Ni 0Eo"/>
  </vehicle>
  <vehicle id="veh_0173" type="car" depart="519.5" departLane="best" departPos="random" departSpeed="max">
    <route edges="0Ni 0Wo"/>
  </vehicle>
  <vehicle id="veh_0174" type="car" depart="522.51" departLane="best" departPos="random" departSpeed="max">
    <route edges="0Wi 0Eo"/>
  </vehicle>
  <vehicle id="veh_0175" type="car" depart="525.51" departLane="best" departPos="random" departSpeed="max">
    <route edges="0Si 0No"/>
  </vehicle>
  <vehicle id="veh_0176" type="car" depart="528.51" departLane="best" departPos="random" departSpeed="max">
    <route edges="0Ei 0Wo"/>
  </vehicle>
  <vehicle id="veh_0177" type="car" depart="531.51" departLane="best" departPos="random" departSpeed="max">
    <route edges="0Wi 0Eo"/>
  </vehicle>
  <vehicle id="veh_0178" type="car" depart="534.52" departLane="best" departPos="random" departSpeed="max">
    <route edges="0Wi 0Eo"/>
  </vehicle>
  <vehicle id="veh_0179" type="car" depart="537.52" departLane="best" departPos="random" departSpeed="max">
    <route edges="0Ei 0No"/>
  </vehicle>
  <vehicle id="veh_0180" type="car" depart="540.52" departLane="best" departPos="random" departSpeed="max">
    <route edges="0Si 0No"/>
  </vehicle>
  <vehicle id="veh_0181" type="car" depart="543.53" departLane="best" departPos="random" departSpeed="max">
    <route edges="0Ni 0Wo"/>
  </vehicle>
  <vehicle id="veh_0182" type="car" depart="546.53" departLane="best" departPos="random" departSpeed="max">
    <route edges="0Ei 0So"/>
  </vehicle>
  <vehicle id="veh_0183" type="car" depart="549.53" departLane="best" departPos="random" departSpeed="max">
    <route edges="0Si 0Wo"/>
  </vehicle>
  <vehicle id="veh_0184" type="car" depart="552.53" departLane="best" departPos="random" departSpeed="max">
    <route edges="0Ni 0Wo"/>
  </vehicle>
  <vehicle id="veh_0185" type="car" depart="555.54" departLane="best" departPos="random" departSpeed="max">
    <route edges="0Si 0Eo"/>
  </vehicle>
  <vehicle id="veh_0186" type="car" depart="558.54" departLane="best" departPos="random" departSpeed="max">
    <route edges="0Ni 0Eo"/>
  </vehicle>
  <vehicle id="veh_0187" type="car" depart="561.54" departLane="best" departPos="random" departSpeed="max">
    <route edges="0Ei 0Wo"/>
  </vehicle>
  <vehicle id="veh_0188" type="car" depart="564.55" departLane="best" departPos="random" departSpeed="max">
    <route edges="0Wi 0No"/>
  </vehicle>
  <vehicle id="veh_0189" type="car" depart="567.55" departLane="best" departPos="random" departSpeed="max">
    <route edges="0Ni 0Eo"/>
  </vehicle>
  <vehicle id="veh_0190" type="car" depart="570.55" departLane="best" departPos="random" departSpeed="max">
    <route edges="0Ni 0Wo"/>
  </vehicle>
  <vehicle id="veh_0191" type="car" depart="573.55" departLane="best" departPos="random" departSpeed="max">
    <route edges="0Ei 0No"/>
  </vehicle>
  <vehicle id="veh_0192" type="car" depart="576.56" departLane="best" departPos="random" departSpeed="max">
    <route edges="0Si 0Wo"/>
  </vehicle>
  <vehicle id="veh_0193" type="car" depart="579.56" departLane="best" departPos="random" departSpeed="max">
    <route edges="0Ni 0So"/>
  </vehicle>
  <vehicle id="veh_0194" type="car" depart="582.56" departLane="best" departPos="random" departSpeed="max">
    <route edges="0Ei 0So"/>
  </vehicle>
  <vehicle id="veh_0195" type="car" depart="585.57" departLane="best" departPos="random" departSpeed="max">
    <route edges="0Ei 0Wo"/>
  </vehicle>
  <vehicle id="veh_0196" type="car" depart="588.57" departLane="best" departPos="random" departSpeed="max">
    <route edges="0Wi 0So"/>
  </vehicle>
  <vehicle id="veh_0197" type="car" depart="591.57" departLane="best" departPos="random" departSpeed="max">
    <route edges="0Si 0Eo"/>
  </vehicle>