<?xml version="1.0" ?>
<routes xmlns:xsi="http://www.w3.org/2001/XMLSchema-instance" xsi:noNamespaceSchemaLocation="http://sumo.dlr.de/xsd/routes_file.xsd">
  <vType id="car" accel="2.6" decel="4.5" sigma="0.5" length="5" minGap="2.5" maxSpeed="13.9" guiShape="passenger"/>
  <vehicle id="veh_0000" type="car" depart="0.0" departLane="best" departPos="random" departSpeed="max">
    <route edges="0Ni 0Wo"/>
  </vehicle>
  <vehicle id="veh_0001" type="car" depart="1.0" departLane="best" departPos="random" departSpeed="max">
    <route edges="0Ni 0Eo"/>
  </vehicle>
  <vehicle id="veh_0002" type="car" depart="2.0" departLane="best" departPos="random" departSpeed="max">
    <route edges="0Wi 0No"/>
  </vehicle>
  <vehicle id="veh_0003" type="car" depart="3.0" departLane="best" departPos="random" departSpeed="max">
    <route edges="0Ni 0Eo"/>
  </vehicle>
  <vehicle id="veh_0004" type="car" depart="4.0" departLane="best" departPos="random" departSpeed="max">
    <route edges="0Ei 0So"/>
  </vehicle>
  <vehicle id="veh_0005" type="car" depart="5.0" departLane="best" departPos="random" departSpeed="max">
    <route edges="0Ei 0Wo"/>
  </vehicle>
  <vehicle id="veh_0006" type="car" depart="6.0" departLane="best" departPos="random" departSpeed="max">
    <route edges="0Si 0No"/>
  </vehicle>
  <vehicle id="veh_0007" type="car" depart="7.0" departLane="best" departPos="random" departSpeed="max">
    <route edges="0Ni 0Wo"/>
  </vehicle>
  <vehicle id="veh_0008" type="car" depart="8.0" departLane="best" departPos="random" departSpeed="max">
    <route edges="0Ei 0Wo"/>
  </vehicle>
  <vehicle id="veh_0009" type="car" depart="9.0" departLane="best" departPos="random" departSpeed="max">
    <route edges="0Wi 0Eo"/>
  </vehicle>
  <vehicle id="veh_0010" type="car" depart="10.0" departLane="best" departPos="random" departSpeed="max">
    <route edges="0Ni 0Wo"/>
  </vehicle>
  <vehicle id="veh_0011" type="car" depart="11.0" departLane="best" departPos="random" departSpeed="max">
    <route edges="0Ni 0So"/>
  </vehicle>
  <vehicle id="veh_0012" type="car" depart="12.0" departLane="best" departPos="random" departSpeed="max">
    <route edges="0Wi 0So"/>
  </vehicle>
  <vehicle id="veh_0013" type="car" depart="13.0" departLane="best" departPos="random" departSpeed="max">
    <route edges="0Wi 0So"/>
  </vehicle>
  <vehicle id="veh_0014" type="car" depart="14.0" departLane="best" departPos="random" departSpeed="max">
    <route edges="0Ei 0Wo"/>
  </vehicle>
  <vehicle id="veh_0015" type="car" depart="15.0" departLane="best" departPos="random" departSpeed="max">
    <route edges="0Ni 0Eo"/>
  </vehicle>
  <vehicle id="veh_0016" type="car" depart="16.0" departLane="best" departPos="random" departSpeed="max">
    <route edges="0Ni 0So"/>
  </vehicle>
  <vehicle id="veh_0017" type="car" depart="17.01" departLane="best" departPos="random" departSpeed="max">
    <route edges="0Wi 0No"/>
  </vehicle>
  <vehicle id="veh_0018" type="car" depart="18.01" departLane="best" departPos="random" departSpeed="max">
    <route edges="0Si 0Wo"/>
  </vehicle>
  <vehicle id="veh_0019" type="car" depart="19.01" departLane="best" departPos="random" departSpeed="max">
    <route edges="0Ei 0So"/>
  </vehicle>
  <vehicle id="veh_0020" type="car" depart="20.01" departLane="best" departPos="random" departSpeed="max">
    <route edges="0Wi 0So"/>
  </vehicle>
  <vehicle id="veh_0021" type="car" depart="21.01" departLane="best" departPos="random" departSpeed="max">
    <route edges="0Ei 0Wo"/>
  </vehicle>
  <vehicle id="veh_0022" type="car" depart="22.01" departLane="best" departPos="random" departSpeed="max">
    <route edges="0Ei 0Wo"/>
  </vehicle>
  <vehicle id="veh_0023" type="car" depart="23.01" departLane="best" departPos="random" departSpeed="max">
    <route edges="0Ni 0So"/>
  </vehicle>
  <vehicle id="veh_0024" type="car" depart="24.01" departLane="best" departPos="random" departSpeed="max">
    <route edges="0Ei 0Wo"/>
  </vehicle>
  <vehicle id="veh_0025" type="car" depart="25.01" departLane="best" departPos="random" departSpeed="max">
    <route edges="0Wi 0So"/>
  </vehicle>
  <vehicle id="veh_0026" type="car" depart="26.01" departLane="best" departPos="random" departSpeed="max">
    <route edges="0Ei 0No"/>
  </vehicle>
  <vehicle id="veh_0027" type="car" depart="27.01" departLane="best" departPos="random" departSpeed="max">
    <route edges="0Ni 0So"/>
  </vehicle>
  <vehicle id="veh_0028" type="car" depart="28.01" departLane="best" departPos="random" departSpeed="max">
    <route edges="0Ni 0Eo"/>
  </vehicle>
  <vehicle id="veh_0029" type="car" depart="29.01" departLane="best" departPos="random" departSpeed="max">
    <route edges="0Ni 0Wo"/>
  </vehicle>
  <vehicle id="veh_0030" type="car" depart="30.01" departLane="best" departPos="random" departSpeed="max">
    <route edges="0Wi 0Eo"/>
  </vehicle>
  <vehicle id="veh_0031" type="car" depart="31.01" departLane="best" departPos="random" departSpeed="max">
    <route edges="0Ei 0So"/>
  </vehicle>
  <vehicle id="veh_0032" type="car" depart="32.01" departLane="best" departPos="random" departSpeed="max">
    <route edges="0Si 0Eo"/>
  </vehicle>
  <vehicle id="veh_0033" type="car" depart="33.01" departLane="best" departPos="random" departSpeed="max">
    <route edges="0Wi 0No"/>
  </vehicle>
  <vehicle id="veh_0034" type="car" depart="34.01" departLane="best" departPos="random" departSpeed="max">
    <route edges="0Wi 0So"/>
  </vehicle>
  <vehicle id="veh_0035" type="car" depart="35.01" departLane="best" departPos="random" departSpeed="max">
    <route edges="0Si 0Wo"/>
  </vehicle>
  <vehicle id="veh_0036" type="car" depart="36.01" departLane="best" departPos="random" departSpeed="max">
    <route edges="0Si 0Eo"/>
  </vehicle>
  <vehicle id="veh_0037" type="car" depart="37.01" departLane="best" departPos="random" departSpeed="max">
    <route edges="0Ni 0Wo"/>
  </vehicle>
  <vehicle id="veh_0038" type="car" depart="38.01" departLane="best" departPos="random" departSpeed="max">
    <route edges="0Si 0Wo"/>
  </vehicle>
  <vehicle id="veh_0039" type="car" depart="39.01" departLane="best" departPos="random" departSpeed="max">
    <route edges="0Wi 0No"/>
  </vehicle>
  <vehicle id="veh_0040" type="car" depart="40.01" departLane="best" departPos="random" departSpeed="max">
    <route edges="0Wi 0No"/>
  </vehicle>
  <vehicle id="veh_0041" type="car" depart="41.01" departLane="best" departPos="random" departSpeed="max">
    <route edges="0Si 0Eo"/>
  </vehicle>
  <vehicle id="veh_0042" type="car" depart="42.01" departLane="best" departPos="random" departSpeed="max">
    <route edges="0Ei 0No"/>
  </vehicle>
  <vehicle id="veh_0043" type="car" depart="43.01" departLane="best" departPos="random" departSpeed="max">
    <route edges="0Wi 0No"/>
  </vehicle>
  <vehicle id="veh_0044" type="car" depart="44.01" departLane="best" departPos="random" departSpeed="max">
    <route edges="0Si 0Wo"/>
  </vehicle>
  <vehicle id="veh_0045" type="car" depart="45.01" departLane="best" departPos="random" departSpeed="max">
    <route edges="0Wi 0Eo"/>
  </vehicle>
  <vehicle id="veh_0046" type="car" depart="46.01" departLane="best" departPos="random" departSpeed="max">
    <route edges="0Ni 0Eo"/>
  </vehicle>
  <vehicle id="veh_0047" type="car" depart="47.01" departLane="best" departPos="random" departSpeed="max">
    <route edges="0Ei 0No"/>
  </vehicle>
  <vehicle id="veh_0048" type="car" depart="48.01" departLane="best" departPos="random" departSpeed="max">
    <route edges="0Wi 0No"/>
  </vehicle>
  <vehicle id="veh_0049" type="car" depart="49.01" departLane="best" departPos="random" departSpeed="max">
    <route edges="0Wi 0So"/>
  </vehicle>
  <vehicle id="veh_0050" type="car" depart="50.02" departLane="best" departPos="random" departSpeed="max">
    <route edges="0Ei 0Wo"/>
  </vehicle>
  <vehicle id="veh_0051" type="car" depart="51.02" departLane="best" departPos="random" departSpeed="max">
    <route edges="0Ni 0So"/>
  </vehicle>
  <vehicle id="veh_0052" type="car" depart="52.02" departLane="best" departPos="random" departSpeed="max">
    <route edges="0Ei 0So"/>
  </vehicle>
  <vehicle id="veh_0053" type="car" depart="53.02" departLane="best" departPos="random" departSpeed="max">
    <route edges="0Wi 0So"/>
  </vehicle>
  <vehicle id="veh_0054" type="car" depart="54.02" departLane="best" departPos="random" departSpeed="max">
    <route edges="0Wi 0Eo"/>
  </vehicle>
  <vehicle id="veh_0055" type="car" depart="55.02" departLane="best" departPos="random" departSpeed="max">
    <route edges="0Wi 0So"/>
  </vehicle>
  <vehicle id="veh_0056" type="car" depart="56.02" departLane="best" departPos="random" departSpeed="max">
    <route edges="0Ei 0Wo"/>
  </vehicle>
  <vehicle id="veh_0057" type="car" depart="57.02" departLane="best" departPos="random" departSpeed="max">
    <route edges="0Ni 0Wo"/>
  </vehicle>
  <vehicle id="veh_0058" type="car" depart="58.02" departLane="best" departPos="random" departSpeed="max">
    <route edges="0Si 0No"/>
  </vehicle>
  <vehicle id="veh_0059" type="car" depart="59.02" departLane="best" departPos="random" departSpeed="max">
    <route edges="0Si 0Wo"/>
  </vehicle>
  <vehicle id="veh_0060" type="car" depart="60.02" departLane="best" departPos="random" departSpeed="max">
    <route edges="0Si 0No"/>
  </vehicle>
  <vehicle id="veh_0061" type="car" depart="61.02" departLane="best" departPos="random" departSpeed="max">
    <route edges="0Wi 0So"/>
  </vehicle>
  <vehicle id="veh_0062" type="car" depart="62.02" departLane="best" departPos="random" departSpeed="max">
    <route edges="0Si 0Eo"/>
  </vehicle>
  <vehicle id="veh_0063" type="car" depart="63.02" departLane="best" departPos="random" departSpeed="max">
    <route edges="0Ni 0Wo"/>
  </vehicle>
  <vehicle id="veh_0064" type="car" depart="64.02" departLane="best" departPos="random" departSpeed="max">
    <route edges="0Si 0No"/>
  </vehicle>
  <vehicle id="veh_0065" type="car" depart="65.02" departLane="best" departPos="random" departSpeed="max">
    <route edges="0Ei 0No"/>
  </vehicle>
  <vehicle id="veh_0066" type="car" depart="66.02" departLane="best" departPos="random" departSpeed="max">
    <route edges="0Ni 0Eo"/>
  </vehicle>
  <vehicle id="veh_0067" type="car" depart="67.02" departLane="best" departPos="random" departSpeed="max">
    <route edges="0Ni 0Wo"/>
  </vehicle>
  <vehicle id="veh_0068" type="car" depart="68.02" departLane="best" departPos="random" departSpeed="max">
    <route edges="0Ei 0No"/>
  </vehicle>
  <vehicle id="veh_0069" type="car" depart="69.02" departLane="best" departPos="random" departSpeed="max">
    <route edges="0Si 0Wo"/>
  </vehicle>
  <vehicle id="veh_0070" type="car" depart="70.02" departLane="best" departPos="random" departSpeed="max">
    <route edges="0Wi 0Eo"/>
  </vehicle>
  <vehicle id="veh_0071" type="car" depart="71.02" departLane="best" departPos="random" departSpeed="max">
    <route edges="0Ei 0Wo"/>
  </vehicle>
  <vehicle id="veh_0072" type="car" depart="72.02" departLane="best" departPos="random" departSpeed="max">
    <route edges="0Ni 0So"/>
  </vehicle>
  <vehicle id="veh_0073" type="car" depart="73.02" departLane="best" departPos="random" departSpeed="max">
    <route edges="0Ni 0So"/>
  </vehicle>
  <vehicle id="veh_0074" type="car" depart="74.02" departLane="best" departPos="random" departSpeed="max">
    <route edges="0Si 0No"/>
  </vehicle>
  <vehicle id="veh_0075" type="car" depart="75.02" departLane="best" departPos="random" departSpeed="max">
    <route edges="0Si 0Eo"/>
  </vehicle>
  <vehicle id="veh_0076" type="car" depart="76.02" departLane="best" departPos="random" departSpeed="max">
    <route edges="0Ei 0So"/>
  </vehicle>
  <vehicle id="veh_0077" type="car" depart="77.02" departLane="best" departPos="random" departSpeed="max">
    <route edges="0Si 0Wo"/>
  </vehicle>
  <vehicle id="veh_0078" type="car" depart="78.02" departLane="best" departPos="random" departSpeed="max">
    <route edges="0Ei 0No"/>
  </vehicle>
  <vehicle id="veh_0079" type="car" depart="79.02" departLane="best" departPos="random" departSpeed="max">
    <route edges="0Si 0Eo"/>
  </vehicle>
  <vehicle id="veh_0080" type="car" depart="80.02" departLane="best" departPos="random" departSpeed="max">
    <route edges="0Ei 0No"/>
  </vehicle>
  <vehicle id="veh_0081" type="car" depart="81.02" departLane="best" departPos="random" departSpeed="max">
    <route edges="0Ei 0Wo"/>
  </vehicle>
  <vehicle id="veh_0082" type="car" depart="82.02" departLane="best" departPos="random" departSpeed="max">
    <route edges="0Ei 0Wo"/>
  </vehicle>
  <vehicle id="veh_0083" type="car" depart="83.02" departLane="best" departPos="random" departSpeed="max">
    <route edges="0Ni 0Eo"/>
  </vehicle>
  <vehicle id="veh_0084" type="car" depart="84.03" departLane="best" departPos="random" departSpeed="max">
    <route edges="0Ni 0So"/>
  </vehicle>
  <vehicle id="veh_0085" type="car" depart="85.03" departLane="best" departPos="random" departSpeed="max">
    <route edges="0Ei 0Wo"/>
  </vehicle>
  <vehicle id="veh_0086" type="car" depart="86.03" departLane="best" departPos="random" departSpeed="max">
    <route edges="0Wi 0So"/>
  </vehicle>
  <vehicle id="veh_0087" type="car" depart="87.03" departLane="best" departPos="random" departSpeed="max">
    <route edges="0Ni 0Wo"/>
  </vehicle>
  <vehicle id="veh_0088" type="car" depart="88.03" departLane="best" departPos="random" departSpeed="max">
    <route edges="0Ni 0So"/>
  </vehicle>
  <vehicle id="veh_0089" type="car" depart="89.03" departLane="best" departPos="random" departSpeed="max">
    <route edges="0Si 0No"/>
  </vehicle>
  <vehicle id="veh_0090" type="car" depart="90.03" departLane="best" departPos="random" departSpeed="max">
    <route edges="0Wi 0No"/>
  </vehicle>
  <vehicle id="veh_0091" type="car" depart="91.03" departLane="best" departPos="random" departSpeed="max">
    <route edges="0Si 0Eo"/>
  </vehicle>
  <vehicle id="veh_0092" type="car" depart="92.03" departLane="best" departPos="random" departSpeed="max">
    <route edges="0Ei 0So"/>
  </vehicle>
  <vehicle id="veh_0093" type="car" depart="93.03" departLane="best" departPos="random" departSpeed="max">
    <route edges="0Ei 0Wo"/>
  </vehicle>
  <vehicle id="veh_0094" type="car" depart="94.03" departLane="best" departPos="random" departSpeed="max">
    <route edges="0Wi 0No"/>
  </vehicle>
  <vehicle id="veh_0095" type="car" depart="95.03" departLane="best" departPos="random" departSpeed="max">
    <route edges="0Si 0Eo"/>
  </vehicle>
  <vehicle id="veh_0096" type="car" depart="96.03" departLane="best" departPos="random" departSpeed="max">
    <route edges="0Ni 0Wo"/>
  </vehicle>
  <vehicle id="veh_0097" type="car" depart="97.03" departLane="best" departPos="random" departSpeed="max">
    <route edges="0Wi 0Eo"/>
  </vehicle>
  <vehicle id="veh_0098" type="car" depart="98.03" departLane="best" departPos="random" departSpeed="max">
    <route edges="0Si 0No"/>
  </vehicle>
  <vehicle id="veh_0099" type="car" depart="99.03" departLane="best" departPos="random" departSpeed="max">
    <route edges="0Wi 0So"/>
  </vehicle>
  <vehicle id="veh_0100" type="car" depart="100.03" departLane="best" departPos="random" departSpeed="max">
    <route edges="0Ni 0So"/>
  </vehicle>
  <vehicle id="veh_0101" type="car" depart="101.03" departLane="best" departPos="random" departSpeed="max">
    <route edges="0Wi 0So"/>
  </vehicle>
  <vehicle id="veh_0102" type="car" depart="102.03" departLane="best" departPos="random" departSpeed="max">
    <route edges="0Wi 0No"/>
  </vehicle>
  <vehicle id="veh_0103" type="car" depart="103.03" departLane="best" departPos="random" departSpeed="max">
    <route edges="0Wi 0No"/>
  </vehicle>
  <vehicle id="veh_0104" type="car" depart="104.03" departLane="best" departPos="random" departSpeed="max">
    <route edges="0Ni 0So"/>
  </vehicle>
  <vehicle id="veh_0105" type="car" depart="105.03" departLane="best" departPos="random" departSpeed="max">
    <route edges="0Ei 0So"/>
  </vehicle>
  <vehicle id="veh_0106" type="car" depart="106.03" departLane="best" departPos="random" departSpeed="max">
    <route edges="0Wi 0No"/>
  </vehicle>
  <vehicle id="veh_0107" type="car" depart="107.03" departLane="best" departPos="random" departSpeed="max">
    <route edges="0Si 0Wo"/>
  </vehicle>
  <vehicle id="veh_0108" type="car" depart="108.03" departLane="best" departPos="random" departSpeed="max">
    <route edges="0Ei 0No"/>
  </vehicle>
  <vehicle id="veh_0109" type="car" depart="109.03" departLane="best" departPos="random" departSpeed="max">
    <route edges="0Wi 0So"/>
  </vehicle>
  <vehicle id="veh_0110" type="car" depart="110.03" departLane="best" departPos="random" departSpeed="max">
    <route edges="0Ni 0Wo"/>
  </vehicle>
  <vehicle id="veh_0111" type="car" depart="111.03" departLane="best" departPos="random" departSpeed="max">
    <route edges="0Si 0No"/>
  </vehicle>
  <vehicle id="veh_0112" type="car" depart="112.03" departLane="best" departPos="random" departSpeed="max">
    <route edges="0Ni 0So"/>
  </vehicle>
  <vehicle id="veh_0113" type="car" depart="113.03" departLane="best" departPos="random" departSpeed="max">
    <route edges="0Wi 0Eo"/>
  </vehicle>
  <vehicle id="veh_0114" type="car" depart="114.03" departLane="best" departPos="random" departSpeed="max">
    <route edges="0Si 0Wo"/>
  </vehicle>
  <vehicle id="veh_0115" type="car" depart="115.03" departLane="best" departPos="random" departSpeed="max">
    <route edges="0Wi 0No"/>
  </vehicle>
  <vehicle id="veh_0116" type="car" depart="116.03" departLane="best" departPos="random" departSpeed="max">
    <route edges="0Ei 0So"/>
  </vehicle>
  <vehicle id="veh_0117" type="car" depart="117.04" departLane="best" departPos="random" departSpeed="max">
    <route edges="0Si 0No"/>
  </vehicle>
  <vehicle id="veh_0118" type="car" depart="118.04" departLane="best" departPos="random" departSpeed="max">
    <route edges="0Ei 0So"/>
  </vehicle>
  <vehicle id="veh_0119" type="car" depart="119.04" departLane="best" departPos="random" departSpeed="max">
    <route edges="0Ni 0So"/>
  </vehicle>
  <vehicle id="veh_0120" type="car" depart="120.04" departLane="best" departPos="random" departSpeed="max">
    <route edges="0Si 0No"/>
  </vehicle>
  <vehicle id="veh_0121" type="car" depart="121.04" departLane="best" departPos="random" departSpeed="max">
    <route edges="0Wi 0No"/>
  </vehicle>
  <vehicle id="veh_0122" type="car" depart="122.04" departLane="best" departPos="random" departSpeed="max">
    <route edges="0Wi 0No"/>
  </vehicle>
  <vehicle id="veh_0123" type="car" depart="123.04" departLane="best" departPos="random" departSpeed="max">
    <route edges="0Si 0Eo"/>
  </vehicle>
  <vehicle id="veh_0124" type="car" depart="124.04" departLane="best" departPos="random" departSpeed="max">
    <route edges="0Ni 0Eo"/>
  </vehicle>
  <vehicle id="veh_0125" type="car" depart="125.04" departLane="best" departPos="random" departSpeed="max">
    <route edges="0Ei 0No"/>
  </vehicle>
  <vehicle id="veh_0126" type="car" depart="126.04" departLane="best" departPos="random" departSpeed="max">
    <route edges="0Ni 0Wo"/>
  </vehicle>
  <vehicle id="veh_0127" type="car" depart="127.04" departLane="best" departPos="random" departSpeed="max">
    <route edges="0Wi 0No"/>
  </vehicle>
  <vehicle id="veh_0128" type="car" depart="128.04" departLane="best" departPos="random" departSpeed="max">
    <route edges="0Ei 0So"/>
  </vehicle>
  <vehicle id="veh_0129" type="car" depart="129.04" departLane="best" departPos="random" departSpeed="max">
    <route edges="0Ni 0Wo"/>
  </vehicle>
  <vehicle id="veh_0130" type="car" depart="130.04" departLane="best" departPos="random" departSpeed="max">
    <route edges="0Si 0No"/>
  </vehicle>
  <vehicle id="veh_0131" type="car" depart="131.04" departLane="best" departPos="random" departSpeed="max">
    <route edges="0Ni 0So"/>
  </vehicle>
  <vehicle id="veh_0132" type="car" depart="132.04" departLane="best" departPos="random" departSpeed="max">
    <route edges="0Ei 0Wo"/>
  </vehicle>
  <vehicle id="veh_0133" type="car" depart="133.04" departLane="best" departPos="random" departSpeed="max">
    <route edges="0Ni 0Eo"/>
  </vehicle>
  <vehicle id="veh_0134" type="car" depart="134.04" departLane="best" departPos="random" departSpeed="max">
    <route edges="0Ni 0Eo"/>
  </vehicle>
  <vehicle id="veh_0135" type="car" depart="135.04" departLane="best" departPos="random" departSpeed="max">
    <route edges="0Ei 0Wo"/>
  </vehicle>
  <vehicle id="veh_0136" type="car" depart="136.04" departLane="best" departPos="random" departSpeed="max">
    <route edges="0Ni 0Eo"/>
  </vehicle>
  <vehicle id="veh_0137" type="car" depart="137.04" departLane="best" departPos="random" departSpeed="max">
    <route edges="0Wi 0So"/>
  </vehicle>
  <vehicle id="veh_0138" type="car" depart="138.04" departLane="best" departPos="random" departSpeed="max">
    <route edges="0Ni 0So"/>
  </vehicle>
  <vehicle id="veh_0139" type="car" depart="139.04" departLane="best" departPos="random" departSpeed="max">
    <route edges="0Ni 0So"/>
  </vehicle>
  <vehicle id="veh_0140" type="car" depart="140.04" departLane="best" departPos="random" departSpeed="max">
    <route edges="0Si 0Eo"/>
  </vehicle>
  <vehicle id="veh_0141" type="car" depart="141.04" departLane="best" departPos="random" departSpeed="max">
    <route edges="0Si 0Eo"/>
  </vehicle>
  <vehicle id="veh_0142" type="car" depart="142.04" departLane="best" departPos="random" departSpeed="max">
    <route edges="0Si 0Wo"/>
  </vehicle>
  <vehicle id="veh_0143" type="car" depart="143.04" departLane="best" departPos="random" departSpeed="max">
    <route edges="0Si 0Eo"/>
  </vehicle>
  <vehicle id="veh_0144" type="car" depart="144.04" departLane="best" departPos="random" departSpeed="max">
    <route edges="0Si 0Eo"/>
  </vehicle>
  <vehicle id="veh_0145" type="car" depart="145.04" departLane="best" departPos="random" departSpeed="max">
    <route edges="0Si 0Eo"/>
  </vehicle>
  <vehicle id="veh_0146" type="car" depart="146.04" departLane="best" departPos="random" departSpeed="max">
    <route edges="0Ni 0Wo"/>
  </vehicle>
  <vehicle id="veh_0147" type="car" depart="147.04" departLane="best" departPos="random" departSpeed="max">
    <route edges="0Si 0No"/>
  </vehicle>
  <vehicle id="veh_0148" type="car" depart="148.04" departLane="best" departPos="random" departSpeed="max">
    <route edges="0Wi 0No"/>
  </vehicle>
  <vehicle id="veh_0149" type="car" depart="149.04" departLane="best" departPos="random" departSpeed="max">
    <route edges="0Wi 0No"/>
  </vehicle>
  <vehicle id="veh_0150" type="car" depart="150.05" departLane="best" departPos="random" departSpeed="max">
    <route edges="0Ni 0Eo"/>
  </vehicle>
  <vehicle id="veh_0151" type="car" depart="151.05" departLane="best" departPos="random" departSpeed="max">
    <route edges="0Ni 0Wo"/>
  </vehicle>
  <vehicle id="veh_0152" type="car" depart="152.05" departLane="best" departPos="random" departSpeed="max">
    <route edges="0Si 0No"/>
  </vehicle>
  <vehicle id="veh_0153" type="car" depart="153.05" departLane="best" departPos="random" departSpeed="max">
    <route edges="0Wi 0So"/>
  </vehicle>
  <vehicle id="veh_0154" type="car" depart="154.05" departLane="best" departPos="random" departSpeed="max">
    <route edges="0Ni 0Wo"/>
  </vehicle>
  <vehicle id="veh_0155" type="car" depart="155.05" departLane="best" departPos="random" departSpeed="max">
    <route edges="0Ei 0No"/>
  </vehicle>
  <vehicle id="veh_0156" type="car" depart="156.05" departLane="best" departPos="random" departSpeed="max">
    <route edges="0Ei 0Wo"/>
  </vehicle>
  <vehicle id="veh_0157" type="car" depart="157.05" departLane="best" departPos="random" departSpeed="max">
    <route edges="0Wi 0No"/>
  </vehicle>
  <vehicle id="veh_0158" type="car" depart="158.05" departLane="best" departPos="random" departSpeed="max">
    <route edges="0Si 0No"/>
  </vehicle>
  <vehicle id="veh_0159" type="car" depart="159.05" departLane="best" departPos="random" departSpeed="max">
    <route edges="0Si 0Eo"/>
  </vehicle>
  <vehicle id="veh_0160" type="car" depart="160.05" departLane="best" departPos="random" departSpeed="max">
    <route edges="0Si 0Wo"/>
  </vehicle>
  <vehicle id="veh_0161" type="car" depart="161.05" departLane="best" departPos="random" departSpeed="max">
    <route edges="0Ei 0So"/>
  </vehicle>
  <vehicle id="veh_0162" type="car" depart="162.05" departLane="best" departPos="random" departSpeed="max">
    <route edges="0Ei 0So"/>
  </vehicle>
  <vehicle id="veh_0163" type="car" depart="163.05" departLane="best" departPos="random" departSpeed="max">
    <route edges="0Ni 0Wo"/>
  </vehicle>
  <vehicle id="veh_0164" type="car" depart="164.05" departLane="best" departPos="random" departSpeed="max">
    <route edges="0Ei 0So"/>
  </vehicle>
  <vehicle id="veh_0165" type="car" depart="165.05" departLane="best" departPos="random" departSpeed="max">
    <route edges="0Ni 0So"/>
  </vehicle>
  <vehicle id="veh_0166" type="car" depart="166.05" departLane="best" departPos="random" departSpeed="max">
    <route edges="0Si 0Wo"/>
  </vehicle>
  <vehicle id="veh_0167" type="car" depart="167.05" departLane="best" departPos="random" departSpeed="max">
    <route edges="0Ni 0So"/>
  </vehicle>
  <vehicle id="veh_0168" type="car" depart="168.05" departLane="best" departPos="random" departSpeed="max">
    <route edges="0Ni 0Eo"/>
  </vehicle>
  <vehicle id="veh_0169" type="car" depart="169.05" departLane="best" departPos="random" departSpeed="max">
    <route edges="0Ni 0Wo"/>
  </vehicle>
  <vehicle id="veh_0170" type="car" depart="170.05" departLane="best" departPos="random" departSpeed="max">
    <route edges="0Ni 0So"/>
  </vehicle>
  <vehicle id="veh_0171" type="car" depart="171.05" departLane="best" departPos="random" departSpeed="max">
    <route edges="0Wi 0No"/>
  </vehicle>
  <vehicle id="veh_0172" type="car" depart="172.05" departLane="best" departPos="random" departSpeed="max">
    <route edges="0Si 0Eo"/>
  </vehicle>
  <vehicle id="veh_0173" type="car" depart="173.05" departLane="best" departPos="random" departSpeed="max">
    <route edges="0Si 0Eo"/>
  </vehicle>
  <vehicle id="veh_0174" type="car" depart="174.05" departLane="best" departPos="random" departSpeed="max">
    <route edges="0Wi 0So"/>
  </vehicle>
  <vehicle id="veh_0175" type="car" depart="175.05" departLane="best" departPos="random" departSpeed="max">
    <route edges="0Wi 0No"/>
  </vehicle>
  <vehicle id="veh_0176" type="car" depart="176.05" departLane="best" departPos="random" departSpeed="max">
    <route edges="0Ei 0No"/>
  </vehicle>
  <vehicle id="veh_0177" type="car" depart="177.05" departLane="best" departPos="random" departSpeed="max">
    <route edges="0Si 0Wo"/>
  </vehicle>
  <vehicle id="veh_0178" type="car" depart="178.05" departLane="best" departPos="random" departSpeed="max">
    <route edges="0Si 0Eo"/>
  </vehicle>
  <vehicle id="veh_0179" type="car" depart="179.05" departLane="best" departPos="random" departSpeed="max">
    <route edges="0Ni 0Eo"/>
  </vehicle>
  <vehicle id="veh_0180" type="car" depart="180.05" departLane="best" departPos="random" departSpeed="max">
    <route edges="0Wi 0So"/>
  </vehicle>
  <vehicle id="veh_0181" type="car" depart="181.05" departLane="best" departPos="random" departSpeed="max">
    <route edges="0Si 0Wo"/>
  </vehicle>
  <vehicle id="veh_0182" type="car" depart="182.05" departLane="best" departPos="random" departSpeed="max">
    <route edges="0Wi 0Eo"/>
  </vehicle>
  <vehicle id="veh_0183" type="car" depart="183.05" departLane="best" departPos="random" departSpeed="max">
    <route edges="0Wi 0No"/>
  </vehicle>
  <vehicle id="veh_0184" type="car" depart="184.06" departLane="best" departPos="random" departSpeed="max">
    <route edges="0Ei 0No"/>
  </vehicle>
  <vehicle id="veh_0185" type="car" depart="185.06" departLane="best" departPos="random" departSpeed="max">
    <route edges="0Ei 0No"/>
  </vehicle>
  <vehicle id="veh_0186" type="car" depart="186.06" departLane="best" departPos="random" departSpeed="max">
    <route edges="0Si 0Eo"/>
  </vehicle>
  <vehicle id="veh_0187" type="car" depart="187.06" departLane="best" departPos="random" departSpeed="max">
    <route edges="0Wi 0No"/>
  </vehicle>
  <vehicle id="veh_0188" type="car" depart="188.06" departLane="best" departPos="random" departSpeed="max">
    <route edges="0Ei 0No"/>
  </vehicle>
  <vehicle id="veh_0189" type="car" depart="189.06" departLane="best" departPos="random" departSpeed="max">
    <route edges="0Si 0Wo"/>
  </vehicle>
  <vehicle id="veh_0190" type="car" depart="190.06" departLane="best" departPos="random" departSpeed="max">
    <route edges="0Wi 0Eo"/>
  </vehicle>
  <vehicle id="veh_0191" type="car" depart="191.06" departLane="best" departPos="random" departSpeed="max">
    <route edges="0Ei 0No"/>
  </vehicle>
  <vehicle id="veh_0192" type="car" depart="192.06" departLane="best" departPos="random" departSpeed="max">
    <route edges="0Si 0Wo"/>
  </vehicle>
  <vehicle id="veh_0193" type="car" depart="193.06" departLane="best" departPos="random" departSpeed="max">
    <route edges="0Ei 0So"/>
  </vehicle>
  <vehicle id="veh_0194" type="car" depart="194.06" departLane="best" departPos="random" departSpeed="max">
    <route edges="0Ni 0Wo"/>
  </vehicle>
  <vehicle id="veh_0195" type="car" depart="195.06" departLane="best" departPos="random" departSpeed="max">
    <route edges="0Ni 0Wo"/>
  </vehicle>
  <vehicle id="veh_0196" type="car" depart="196.06" departLane="best" departPos="random" departSpeed="max">
    <route edges="0Ni 0Wo"/>
  </vehicle>
  <vehicle id="veh_0197" type="car" depart="197.06" departLane="best" departPos="random" departSpeed="max">
    <route edges="0Ni 0Wo"/>
  </vehicle>
  <vehicle id="veh_0198" type="car" depart="198.06" departLane="best" departPos="random" departSpeed="max">
    <route edges="0Ei 0Wo"/>
  </vehicle>